#	Name: ASD03731671
#	Creating user name:	WinNT
#	Creation time:	15. 06. 2019 20:46

#	Modifying user name:	WinNT
#	Modification time:	15. 06. 2019 20:46

#	Program:	/corina/corina34_cracker 3.40 0067  02.08.2006

@<TRIPOS>MOLECULE
ASD03731671
  36   37    0    0    0
SMALL
NO_CHARGES


@<TRIPOS>ATOM
   1 C1            -0.1365     1.4672     0.0334 C.2     
   2 C2            -0.0854    -0.0063     0.0192 C.ar    
   3 C3             1.1398    -0.6648    -0.1384 C.ar    
   4 C4             1.1826    -2.0445    -0.1505 C.ar    
   5 C5             0.0129    -2.7784    -0.0068 C.ar    
   6 C6            -1.2080    -2.1272     0.1502 C.ar    
   7 C7            -1.2597    -0.7503     0.1689 C.ar    
   8 O8             0.8866     2.1123    -0.0919 O.2     
   9 N9            -1.3180     2.0991     0.1797 N.am    
  10 S10           -1.3754     3.7540     0.1956 S.o2    
  11 O11           -2.7506     4.0550     0.3895 O.2     
  12 O12           -0.4005     4.1293     1.1589 O.2     
  13 C13           -0.8457     4.2414    -1.4694 C.3     
  14 F14           -2.3430    -2.8466     0.2897 F       
  15 F15            2.2784     0.0488    -0.2788 F       
  16 O16            0.0593    -4.1350    -0.0197 O.3     
  17 C17           -0.1524    -4.7693    -1.2026 C.ar    
  18 C18           -0.0465    -6.1510    -1.2791 C.ar    
  19 C19           -0.2625    -6.7940    -2.4822 C.ar    
  20 C20           -0.5837    -6.0625    -3.6108 C.ar    
  21 C21           -0.6896    -4.6848    -3.5381 C.ar    
  22 C22           -0.4803    -4.0373    -2.3344 C.ar    
  23 C23            0.3045    -6.9493    -0.0500 C.3     
  24 Cl24          -1.0919    -3.7694    -4.9572 Cl      
  25 H25            2.1272    -2.5537    -0.2724 H       
  26 H26           -2.2066    -0.2464     0.2952 H       
  27 H27           -2.1346     1.5845     0.2756 H       
  28 H28           -1.5279     3.8176    -2.2064 H       
  29 H29           -0.8538     5.3284    -1.5497 H       
  30 H30            0.1629     3.8710    -1.6528 H       
  31 H31           -0.1801    -7.8692    -2.5417 H       
  32 H32           -0.7519    -6.5673    -4.5507 H       
  33 H33           -0.5673    -2.9623    -2.2765 H       
  34 H34           -0.6092    -7.2309     0.4735 H       
  35 H35            0.8469    -7.8482    -0.3433 H       
  36 H36            0.9295    -6.3464     0.6086 H       
@<TRIPOS>BOND
   1    1    2 1
   2    1    8 2
   3    1    9 am
   4    2    3 ar
   5    2    7 ar
   6    3    4 ar
   7    3   15 1
   8    4    5 ar
   9    4   25 1
  10    5    6 ar
  11    5   16 1
  12    6    7 ar
  13    6   14 1
  14    7   26 1
  15    9   10 am
  16    9   27 1
  17   10   11 2
  18   10   12 2
  19   10   13 1
  20   13   28 1
  21   13   29 1
  22   13   30 1
  23   16   17 1
  24   17   18 ar
  25   17   22 ar
  26   18   19 ar
  27   18   23 1
  28   19   20 ar
  29   19   31 1
  30   20   21 ar
  31   20   32 1
  32   21   22 ar
  33   21   24 1
  34   22   33 1
  35   23   34 1
  36   23   35 1
  37   23   36 1

#	End of record

