#	Name: ASD01911070
#	Creating user name:	WinNT
#	Creation time:	15. 06. 2019 19:57

#	Modifying user name:	WinNT
#	Modification time:	15. 06. 2019 19:57

#	Program:	/corina/corina34_cracker 3.40 0067  02.08.2006

@<TRIPOS>MOLECULE
ASD01911070
  52   55    0    0    0
SMALL
NO_CHARGES


@<TRIPOS>ATOM
   1 N1             0.1391     1.3756    -0.1948 N.3     
   2 C2             0.0791    -0.0902    -0.1198 C.3     
   3 C3            -1.3667    -0.5263     0.1403 C.3     
   4 N4            -2.2293     0.0798    -0.8853 N.am    
   5 C5            -2.1256     1.5290    -1.1140 C.3     
   6 C6            -0.6499     1.8841    -1.3248 C.3     
   7 C7            -3.0921    -0.6728    -1.5963 C.2     
   8 C8            -4.0367    -0.0283    -2.5330 C.ar    
   9 C9            -4.3118    -0.6213    -3.7676 C.ar    
  10 C10           -5.1932    -0.0217    -4.6448 C.ar    
  11 C11           -5.8097     1.1685    -4.3092 C.ar    
  12 C12           -5.5432     1.7736    -3.0754 C.ar    
  13 C13           -4.6586     1.1687    -2.1835 C.ar    
  14 C14           -6.1818     3.0074    -2.7278 C.1     
  15 O15           -3.0936    -1.8815    -1.4674 O.2     
  16 C16           -6.7053     4.0188    -2.4429 C.1     
  17 C17           -7.3439     5.2525    -2.0953 C.ar    
  18 C18           -7.0853     5.8651    -0.8667 C.ar    
  19 N19           -7.6730     6.9996    -0.5478 N.ar    
  20 C20           -8.5196     7.5991    -1.3627 C.ar    
  21 C21           -8.8291     7.0570    -2.5976 C.ar    
  22 C22           -8.2349     5.8693    -2.9842 C.ar    
  23 C23            1.4614     1.8194    -0.2677 C.ar    
  24 Cl24          -6.9160     1.9147    -5.4196 Cl      
  25 C25            1.7362     3.1786    -0.3457 C.ar    
  26 C26            3.0450     3.6141    -0.4171 C.ar    
  27 C27            4.0811     2.6986    -0.4116 C.ar    
  28 C28            3.8111     1.3443    -0.3341 C.ar    
  29 C29            2.5052     0.9025    -0.2566 C.ar    
  30 C30            3.3441     5.0887    -0.5017 C.3     
  31 F31            3.4868     5.6104     0.7885 F       
  32 F32            4.5303     5.2836    -1.2174 F       
  33 F33            2.2929     5.7410    -1.1549 F       
  34 H34            0.4238    -0.5170    -1.0617 H       
  35 H35            0.7161    -0.4392     0.6929 H       
  36 H36           -1.4375    -1.6125     0.0830 H       
  37 H37           -1.6791    -0.1878     1.1282 H       
  38 H38           -2.6981     1.8016    -2.0006 H       
  39 H39           -2.5109     2.0650    -0.2467 H       
  40 H40           -0.5416     2.9670    -1.3860 H       
  41 H41           -0.2950     1.4299    -2.2499 H       
  42 H42           -3.8333    -1.5514    -4.0368 H       
  43 H43           -5.4015    -0.4849    -5.5980 H       
  44 H44           -4.4489     1.6307    -1.2301 H       
  45 H45           -6.3980     5.4043    -0.1726 H       
  46 H46           -8.9793     8.5285    -1.0607 H       
  47 H47           -9.5240     7.5585    -3.2548 H       
  48 H48           -8.4581     5.4244    -3.9427 H       
  49 H49            0.9273     3.8942    -0.3507 H       
  50 H50            5.1036     3.0417    -0.4683 H       
  51 H51            4.6227     0.6318    -0.3303 H       
  52 H52            2.2950    -0.1551    -0.1957 H       
@<TRIPOS>BOND
   1    1    2 1
   2    1   23 1
   3    1    6 1
   4    2    3 1
   5    2   34 1
   6    2   35 1
   7    3    4 1
   8    3   36 1
   9    3   37 1
  10    4    5 1
  11    4    7 am
  12    5    6 1
  13    5   38 1
  14    5   39 1
  15    6   40 1
  16    6   41 1
  17    7    8 1
  18    7   15 2
  19    8    9 ar
  20    8   13 ar
  21    9   10 ar
  22    9   42 1
  23   10   11 ar
  24   10   43 1
  25   11   12 ar
  26   11   24 1
  27   12   13 ar
  28   12   14 1
  29   13   44 1
  30   14   16 3
  31   16   17 1
  32   17   18 ar
  33   17   22 ar
  34   18   19 ar
  35   18   45 1
  36   19   20 ar
  37   20   21 ar
  38   20   46 1
  39   21   22 ar
  40   21   47 1
  41   22   48 1
  42   23   25 ar
  43   23   29 ar
  44   25   26 ar
  45   25   49 1
  46   26   27 ar
  47   26   30 1
  48   27   28 ar
  49   27   50 1
  50   28   29 ar
  51   28   51 1
  52   29   52 1
  53   30   31 1
  54   30   32 1
  55   30   33 1

#	End of record

