#	Name: ASD01411071
#	Creating user name:	WinNT
#	Creation time:	15. 06. 2019 19:19

#	Modifying user name:	WinNT
#	Modification time:	15. 06. 2019 19:19

#	Program:	/corina/corina34_cracker 3.40 0067  02.08.2006

@<TRIPOS>MOLECULE
ASD01411071
  39   41    0    0    0
SMALL
NO_CHARGES


@<TRIPOS>ATOM
   1 C1             1.4240     1.4295    -1.3217 C.ar    
   2 C2             1.4428     0.0491    -1.3577 C.ar    
   3 C3             1.1869     2.0888    -0.1227 C.ar    
   4 C4             1.2257    -0.6774    -0.2014 C.ar    
   5 C5             0.9692     1.3579     1.0370 C.ar    
   6 N6             1.1678     3.4894    -0.0836 N.am    
   7 C7             0.9886    -0.0239     0.9951 C.ar    
   8 C8             2.3313     4.1655     0.0351 C.2     
   9 C9            -0.0058     4.1352    -0.1704 C.2     
  10 Cl10           0.7160    -0.9396     2.4445 Cl      
  11 C11            2.2810     5.6380     0.0736 C.ar    
  12 O12            3.3917     3.5749     0.1086 O.2     
  13 N13           -0.1032     5.4754    -0.1405 N.am    
  14 O14           -1.0238     3.4800    -0.2810 O.2     
  15 C15            1.0247     6.2620    -0.0153 C.ar    
  16 C16            3.4358     6.4064     0.1948 C.ar    
  17 C17            0.9449     7.6592     0.0185 C.ar    
  18 C18            3.3444     7.7850     0.2275 C.ar    
  19 C19            2.1160     8.4110     0.1401 C.ar    
  20 C20           -0.3646     8.3319    -0.0739 C.2     
  21 O21           -1.3743     7.6762    -0.2439 O.2     
  22 N22           -0.4419     9.6735     0.0300 N.am    
  23 C23           -1.7424    10.3416    -0.0618 C.3     
  24 C24           -1.5514    11.8523     0.0869 C.3     
  25 O25           -0.7930    12.3476    -1.0184 O.3     
  26 H26            1.5981     1.9960    -2.2246 H       
  27 H27            1.6269    -0.4637    -2.2903 H       
  28 H28            1.2409    -1.7569    -0.2321 H       
  29 H29            0.7845     1.8679     1.9709 H       
  30 H30           -0.9754     5.8946    -0.2071 H       
  31 H31            4.4008     5.9262     0.2633 H       
  32 H32            4.2417     8.3786     0.3219 H       
  33 H33            2.0606     9.4892     0.1671 H       
  34 H34            0.3636    10.1966     0.1656 H       
  35 H35           -2.1941    10.1260    -1.0302 H       
  36 H36           -2.3946     9.9779     0.7322 H       
  37 H37           -2.5252    12.3414     0.1076 H       
  38 H38           -1.0198    12.0616     1.0152 H       
  39 H39           -0.6330    13.3008    -0.9900 H       
@<TRIPOS>BOND
   1    1    2 ar
   2    1    3 ar
   3    1   26 1
   4    2    4 ar
   5    2   27 1
   6    3    5 ar
   7    3    6 1
   8    4    7 ar
   9    4   28 1
  10    5    7 ar
  11    5   29 1
  12    6    9 am
  13    6    8 am
  14    7   10 1
  15    8   11 1
  16    8   12 2
  17    9   13 am
  18    9   14 2
  19   11   15 ar
  20   11   16 ar
  21   13   15 1
  22   13   30 1
  23   15   17 ar
  24   16   18 ar
  25   16   31 1
  26   17   20 1
  27   17   19 ar
  28   18   19 ar
  29   18   32 1
  30   19   33 1
  31   20   21 2
  32   20   22 am
  33   22   23 1
  34   22   34 1
  35   23   24 1
  36   23   35 1
  37   23   36 1
  38   24   25 1
  39   24   37 1
  40   24   38 1
  41   25   39 1

#	End of record

