#	Name: ASD03730035
#	Creating user name:	WinNT
#	Creation time:	15. 06. 2019 20:43

#	Modifying user name:	WinNT
#	Modification time:	15. 06. 2019 20:43

#	Program:	/corina/corina34_cracker 3.40 0067  02.08.2006

@<TRIPOS>MOLECULE
ASD03730035
  33   36    0    0    0
SMALL
NO_CHARGES


@<TRIPOS>ATOM
   1 O1            -0.0175     1.4361     0.0099 O.3     
   2 C2             0.0021    -0.0041     0.0020 C.3     
   3 C3             1.3451    -0.3163    -0.6721 C.3     
   4 C4             2.1587     0.9226    -0.4098 C.ar    
   5 C5             1.2615     1.9062     0.0003 C.ar    
   6 C6             1.7486     3.1673     0.3277 C.ar    
   7 C7             3.1031     3.4386     0.2364 C.ar    
   8 C8             3.9847     2.4527    -0.1831 C.ar    
   9 C9             3.5059     1.1961    -0.5043 C.ar    
  10 N10            2.1574    -2.4046    -1.1246 N.am    
  11 C11            1.9841    -1.5482    -0.0982 C.2     
  12 C12            1.1866    -0.5961    -2.1370 C.ar    
  13 C13            0.6757     0.1246    -3.1937 C.ar    
  14 C14            0.6686    -0.4210    -4.4651 C.ar    
  15 C15            1.1757    -1.6909    -4.6725 C.ar    
  16 C16            1.6886    -2.4163    -3.6174 C.ar    
  17 C17            1.6999    -1.8755    -2.3339 C.ar    
  18 O18            2.2851    -1.7358     1.0617 O.2     
  19 O19            3.5704     4.6735     0.5581 O.3     
  20 C20            4.9788     4.8850     0.4413 C.3     
  21 F21            5.3751     4.6662    -0.8824 F       
  22 F22            5.2850     6.1997     0.8085 F       
  23 F23            5.6552     3.9960     1.2836 F       
  24 H24           -0.0211    -0.3969     1.0185 H       
  25 H25           -0.8268    -0.3990    -0.5855 H       
  26 H26            1.0669     3.9386     0.6543 H       
  27 H27            5.0407     2.6661    -0.2586 H       
  28 H28            4.1899     0.4264    -0.8301 H       
  29 H29            2.5540    -3.2852    -1.0342 H       
  30 H30            0.2802     1.1161    -3.0296 H       
  31 H31            0.2674     0.1434    -5.2938 H       
  32 H32            1.1697    -2.1166    -5.6650 H       
  33 H33            2.0826    -3.4074    -3.7871 H       
@<TRIPOS>BOND
   1    1    2 1
   2    1    5 1
   3    2    3 1
   4    2   24 1
   5    2   25 1
   6    3    4 1
   7    3   11 1
   8    3   12 1
   9    4    5 ar
  10    4    9 ar
  11    5    6 ar
  12    6    7 ar
  13    6   26 1
  14    7    8 ar
  15    7   19 1
  16    8    9 ar
  17    8   27 1
  18    9   28 1
  19   10   11 am
  20   10   17 1
  21   10   29 1
  22   11   18 2
  23   12   13 ar
  24   12   17 ar
  25   13   14 ar
  26   13   30 1
  27   14   15 ar
  28   14   31 1
  29   15   16 ar
  30   15   32 1
  31   16   17 ar
  32   16   33 1
  33   19   20 1
  34   20   21 1
  35   20   22 1
  36   20   23 1

#	End of record

