#	Name: ASD05250029
#	Creating user name:	WinNT
#	Creation time:	15. 06. 2019 20:58

#	Modifying user name:	WinNT
#	Modification time:	15. 06. 2019 20:58

#	Program:	/corina/corina34_cracker 3.40 0067  02.08.2006

@<TRIPOS>MOLECULE
ASD05250029
  46   49    0    0    0
SMALL
NO_CHARGES


@<TRIPOS>ATOM
   1 C1             0.2318     1.4969     0.1577 C.3     
   2 C2             0.2744    -0.0302     0.1221 C.3     
   3 C3            -1.0762    -0.6291     0.5305 C.3     
   4 C4            -2.0503     0.5117     0.6459 C.2     
   5 C5            -1.7822     1.6854     1.5923 C.3     
   6 C6            -0.2966     2.0261     1.4759 C.3     
   7 C7             1.6239     2.0436    -0.1554 C.3     
   8 C8             2.0512     1.5287    -1.5350 C.3     
   9 C9             2.0121     0.0001    -1.5515 C.3     
  10 N10            0.6599    -0.4740    -1.2202 N.3     
  11 O11            2.5657     1.5842     0.8497 O.3     
  12 C12           -2.6265     2.7576     0.9358 C.2     
  13 C13           -2.2955     4.0477     0.8712 C.2     
  14 C14           -0.9723     4.4231     1.4035 C.2     
  15 C15           -0.0650     3.4895     1.6639 C.2     
  16 C16            3.6071     2.3864     1.1210 C.2     
  17 O17            3.7278     3.4378     0.5379 O.2     
  18 N18           -3.6429     2.0513     0.3294 N.pl3   
  19 C19           -3.2043     0.7518     0.0886 C.2     
  20 C20            4.6259     1.9759     2.1528 C.3     
  21 C21            1.0967     2.0736    -2.5994 C.3     
  22 C22            0.5712    -1.9357    -1.3371 C.3     
  23 H23           -0.4468     1.8337    -0.6260 H       
  24 H24            1.0359    -0.3751     0.8216 H       
  25 H25           -1.4159    -1.3321    -0.2300 H       
  26 H26           -0.9825    -1.1360     1.4909 H       
  27 H27           -2.0800     1.4743     2.6193 H       
  28 H28            0.2287     1.5092     2.2791 H       
  29 H29            1.5959     3.1333    -0.1638 H       
  30 H30            3.0645     1.8677    -1.7505 H       
  31 H31            2.2878    -0.3579    -2.5435 H       
  32 H32            2.7206    -0.3876    -0.8195 H       
  33 H33           -2.9646     4.7828     0.4487 H       
  34 H34           -0.7403     5.4626     1.5824 H       
  35 H35            0.8985     3.8074     2.0342 H       
  36 H36           -4.5197     2.4017     0.1072 H       
  37 H37           -3.7559     0.0273    -0.4920 H       
  38 H38            4.3519     1.0060     2.5681 H       
  39 H39            5.6084     1.9068     1.6859 H       
  40 H40            4.6541     2.7179     2.9508 H       
  41 H41            1.1280     3.1631    -2.5920 H       
  42 H42            1.3997     1.7080    -3.5806 H       
  43 H43            0.0823     1.7378    -2.3839 H       
  44 H44            1.1810    -2.3998    -0.5620 H       
  45 H45           -0.4665    -2.2474    -1.2184 H       
  46 H46            0.9334    -2.2444    -2.3178 H       
@<TRIPOS>BOND
   1    1    2 1
   2    1    7 1
   3    1    6 1
   4    1   23 1
   5    2    3 1
   6    2   10 1
   7    2   24 1
   8    3    4 1
   9    3   25 1
  10    3   26 1
  11    4    5 1
  12    4   19 2
  13    5    6 1
  14    5   12 1
  15    5   27 1
  16    6   15 1
  17    6   28 1
  18    7    8 1
  19    7   11 1
  20    7   29 1
  21    8    9 1
  22    8   21 1
  23    8   30 1
  24    9   10 1
  25    9   31 1
  26    9   32 1
  27   10   22 1
  28   11   16 1
  29   12   13 2
  30   12   18 1
  31   13   14 1
  32   13   33 1
  33   14   15 2
  34   14   34 1
  35   15   35 1
  36   16   17 2
  37   16   20 1
  38   18   19 1
  39   18   36 1
  40   19   37 1
  41   20   38 1
  42   20   39 1
  43   20   40 1
  44   21   41 1
  45   21   42 1
  46   21   43 1
  47   22   44 1
  48   22   45 1
  49   22   46 1

#	End of record

