#	Name: ASD01820091
#	Creating user name:	WinNT
#	Creation time:	15. 06. 2019 19:36

#	Modifying user name:	WinNT
#	Modification time:	15. 06. 2019 19:36

#	Program:	/corina/corina34_cracker 3.40 0067  02.08.2006

@<TRIPOS>MOLECULE
ASD01820091
  58   65    0    0    0
SMALL
NO_CHARGES


@<TRIPOS>ATOM
   1 C1            -0.0982     1.5514     0.4177 C.3     
   2 C2            -0.7355     2.1132    -0.8423 C.3     
   3 C3            -2.0034     1.4106    -1.2337 C.3     
   4 C4            -1.6302    -0.0518    -1.5374 C.3     
   5 C5            -0.3513    -0.3898     2.0021 C.3     
   6 C6            -1.1897    -0.6926    -0.2378 C.3     
   7 N7            -2.3290    -0.8733     0.6738 N.3     
   8 C8            -1.7152    -1.0986     2.0137 C.3     
   9 C9             2.0687     0.7643     0.0162 C.ar    
  10 N10            1.3347     1.9113     0.2024 N.am    
  11 C11           -0.1133     0.0406     0.5302 C.3     
  12 C12            1.2827    -0.3847     0.1703 C.ar    
  13 C13            1.6625     3.2158     0.0485 C.2     
  14 C14            0.5585     4.1419    -0.2615 C.2     
  15 C15           -0.7432     3.6237    -0.8411 C.3     
  16 C16            3.4283     0.6433    -0.2962 C.ar    
  17 C17            1.7989    -1.6556     0.0058 C.ar    
  18 C18            3.1479    -1.7575    -0.3111 C.ar    
  19 C19            3.9370    -0.6345    -0.4536 C.ar    
  20 O20            2.8106     3.6041     0.1601 O.2     
  21 C21            0.7074     5.4614    -0.0272 C.2     
  22 C22           -0.3203     6.4107    -0.4850 C.ar    
  23 C23           -0.7214     7.4649     0.3416 C.ar    
  24 C24           -1.6846     8.3500    -0.0944 C.ar    
  25 C25           -2.2541     8.1971    -1.3465 C.ar    
  26 C26           -1.8628     7.1560    -2.1703 C.ar    
  27 C27           -0.8963     6.2663    -1.7510 C.ar    
  28 O28           -1.8230     4.1439    -0.0625 O.3     
  29 C29           -3.1310     3.8172    -0.5427 C.3     
  30 C30           -3.5804     2.5679     0.1646 C.2     
  31 C31           -2.9939     1.4232    -0.1008 C.2     
  32 C32           -3.2202     0.2669     0.8047 C.3     
  33 H33           -0.4968     2.0182     1.3184 H       
  34 H34           -0.0290     1.8570    -1.6319 H       
  35 H35           -2.4308     1.8786    -2.1204 H       
  36 H36           -2.4972    -0.5797    -1.9346 H       
  37 H37           -0.8146    -0.0828    -2.2599 H       
  38 H38           -0.3767     0.4858     2.6508 H       
  39 H39            0.4320    -1.0756     2.3251 H       
  40 H40           -0.7993    -1.6828    -0.4728 H       
  41 H41           -1.5790    -2.1662     2.1865 H       
  42 H42           -2.3500    -0.6728     2.7908 H       
  43 H43           -0.8489     3.9833    -1.8646 H       
  44 H44            4.0565     1.5144    -0.4105 H       
  45 H45            1.1798    -2.5333     0.1191 H       
  46 H46            3.5874    -2.7344    -0.4482 H       
  47 H47            4.9825    -0.7560    -0.6955 H       
  48 H48            1.5805     5.8217     0.4964 H       
  49 H49           -0.2781     7.5853     1.3191 H       
  50 H50           -1.9957     9.1645     0.5430 H       
  51 H51           -3.0081     8.8936    -1.6824 H       
  52 H52           -2.3120     7.0431    -3.1458 H       
  53 H53           -0.5917     5.4546    -2.3951 H       
  54 H54           -3.8193     4.6336    -0.3238 H       
  55 H55           -3.0963     3.6408    -1.6178 H       
  56 H56           -4.3815     2.6122     0.8877 H       
  57 H57           -4.2393    -0.0862     0.6469 H       
  58 H58           -3.1516     0.6280     1.8308 H       
@<TRIPOS>BOND
   1    1   11 1
   2    1   10 1
   3    1    2 1
   4    1   33 1
   5    2    3 1
   6    2   15 1
   7    2   34 1
   8    3    4 1
   9    3   31 1
  10    3   35 1
  11    4    6 1
  12    4   36 1
  13    4   37 1
  14    5    8 1
  15    5   11 1
  16    5   38 1
  17    5   39 1
  18    6    7 1
  19    6   11 1
  20    6   40 1
  21    7    8 1
  22    7   32 1
  23    8   41 1
  24    8   42 1
  25    9   10 1
  26    9   12 ar
  27    9   16 ar
  28   10   13 am
  29   11   12 1
  30   12   17 ar
  31   13   14 1
  32   13   20 2
  33   14   21 2
  34   14   15 1
  35   15   28 1
  36   15   43 1
  37   16   19 ar
  38   16   44 1
  39   17   18 ar
  40   17   45 1
  41   18   19 ar
  42   18   46 1
  43   19   47 1
  44   21   22 1
  45   21   48 1
  46   22   23 ar
  47   22   27 ar
  48   23   24 ar
  49   23   49 1
  50   24   25 ar
  51   24   50 1
  52   25   26 ar
  53   25   51 1
  54   26   27 ar
  55   26   52 1
  56   27   53 1
  57   28   29 1
  58   29   30 1
  59   29   54 1
  60   29   55 1
  61   30   31 2
  62   30   56 1
  63   31   32 1
  64   32   57 1
  65   32   58 1

#	End of record

