#	Name: ASD05250019
#	Creating user name:	WinNT
#	Creation time:	15. 06. 2019 20:58

#	Modifying user name:	WinNT
#	Modification time:	15. 06. 2019 20:58

#	Program:	/corina/corina34_cracker 3.40 0067  02.08.2006

@<TRIPOS>MOLECULE
ASD05250019
  37   40    0    0    0
SMALL
NO_CHARGES


@<TRIPOS>ATOM
   1 O1             0.0021    -0.0041     0.0020 O.2     
   2 C2            -0.0144     1.2120     0.0087 C.2     
   3 C3             1.2512     1.9659     0.0007 C.ar    
   4 C4             1.2517     3.3584     0.0081 C.ar    
   5 N5             2.3814     4.0390     0.0005 N.ar    
   6 C6             3.5640     3.4526    -0.0140 C.ar    
   7 C7             3.6696     2.0720    -0.0220 C.ar    
   8 C8             2.4955     1.2924    -0.0089 C.ar    
   9 N9             2.8679     0.0056    -0.0198 N.2     
  10 C10            4.1794    -0.0774    -0.0386 C.2     
  11 N11            4.7211     1.1772    -0.0363 N.pl3   
  12 C12            4.9521    -1.3380    -0.0550 C.ar    
  13 C13            6.3470    -1.3046    -0.0739 C.ar    
  14 C14            7.0621    -2.4845    -0.0892 C.ar    
  15 C15            6.3992    -3.6987    -0.0863 C.ar    
  16 C16            5.0162    -3.7387    -0.0676 C.ar    
  17 C17            4.2895    -2.5665    -0.0459 C.ar    
  18 C18            2.7833    -2.6119    -0.0256 C.3     
  19 F19            2.3568    -3.9443    -0.0330 F       
  20 F20            2.3131    -1.9783     1.1296 F       
  21 F21            2.2817    -1.9555    -1.1546 F       
  22 N22           -1.1906     1.8700     0.0179 N.am    
  23 C23           -2.3839     1.1592     0.0197 C.2     
  24 N24           -3.5657     1.6923     0.0282 N.2     
  25 C25           -4.5942     0.8650     0.0286 C.2     
  26 C26           -4.2659    -0.4284     0.0200 C.2     
  27 S27           -2.5082    -0.5458     0.0036 S.3     
  28 H28            0.3116     3.8898     0.0200 H       
  29 H29            4.4593     4.0566    -0.0201 H       
  30 H30            5.6657     1.3975    -0.0476 H       
  31 H31            6.8657    -0.3573    -0.0769 H       
  32 H32            8.1418    -2.4601    -0.1039 H       
  33 H33            6.9636    -4.6194    -0.0991 H       
  34 H34            4.5046    -4.6899    -0.0655 H       
  35 H35           -1.2038     2.8399     0.0232 H       
  36 H36           -5.6185     1.2071     0.0353 H       
  37 H37           -4.9571    -1.2583     0.0187 H       
@<TRIPOS>BOND
   1    1    2 2
   2    2    3 1
   3    2   22 am
   4    3    4 ar
   5    3    8 ar
   6    4    5 ar
   7    4   28 1
   8    5    6 ar
   9    6    7 ar
  10    6   29 1
  11    7    8 ar
  12    7   11 1
  13    8    9 1
  14    9   10 2
  15   10   11 1
  16   10   12 1
  17   11   30 1
  18   12   13 ar
  19   12   17 ar
  20   13   14 ar
  21   13   31 1
  22   14   15 ar
  23   14   32 1
  24   15   16 ar
  25   15   33 1
  26   16   17 ar
  27   16   34 1
  28   17   18 1
  29   18   19 1
  30   18   20 1
  31   18   21 1
  32   22   23 1
  33   22   35 1
  34   23   24 2
  35   23   27 1
  36   24   25 1
  37   25   26 2
  38   25   36 1
  39   26   27 1
  40   26   37 1

#	End of record

