#	Name: ASD00060022
#	Creating user name:	WinNT
#	Creation time:	15. 06. 2019 18:29

#	Modifying user name:	WinNT
#	Modification time:	15. 06. 2019 18:29

#	Program:	/corina/corina34_cracker 3.40 0067  02.08.2006

@<TRIPOS>MOLECULE
ASD00060022
  37   38    0    0    0
SMALL
NO_CHARGES


@<TRIPOS>ATOM
   1 C1            -0.0167     1.3781     0.0096 C.ar    
   2 C2             0.0021    -0.0041     0.0020 C.ar    
   3 C3            -1.1855    -0.7115     0.0095 C.ar    
   4 C4            -2.3919    -0.0367     0.0251 C.ar    
   5 C5            -2.4106     1.3455     0.0336 C.ar    
   6 C6            -1.2230     2.0529     0.0305 C.ar    
   7 C7             1.2780     2.1493     0.0014 C.3     
   8 C8             1.3352     3.0367    -1.2437 C.3     
   9 C9             2.6793     3.7142    -1.3164 C.2     
  10 C10            2.9841     4.6260    -2.4296 C.ar    
  11 C11            4.2308     5.2567    -2.5004 C.ar    
  12 C12            4.5096     6.1094    -3.5466 C.ar    
  13 C13            3.5583     6.3429    -4.5267 C.ar    
  14 C14            2.3212     5.7220    -4.4629 C.ar    
  15 C15            2.0307     4.8620    -3.4259 C.ar    
  16 Cl16           3.9180     7.4189    -5.8406 Cl      
  17 O17            3.5097     3.5078    -0.4571 O.2     
  18 S18            1.3741     3.1855     1.4873 S.3     
  19 C19            1.4465     1.9678     2.8299 C.3     
  20 C20            1.5307     2.6837     4.1533 C.2     
  21 O21            1.5945     1.9796     5.2943 O.3     
  22 O22            1.5408     3.8914     4.1873 O.2     
  23 H23            0.9446    -0.5313    -0.0101 H       
  24 H24           -1.1709    -1.7913     0.0029 H       
  25 H25           -3.3198    -0.5893     0.0302 H       
  26 H26           -3.3531     1.8728     0.0454 H       
  27 H27           -1.2376     3.1328     0.0372 H       
  28 H28            2.1160     1.4524    -0.0103 H       
  29 H29            1.1885     2.4242    -2.1334 H       
  30 H30            0.5505     3.7912    -1.1885 H       
  31 H31            4.9729     5.0762    -1.7367 H       
  32 H32            5.4716     6.5970    -3.6025 H       
  33 H33            1.5844     5.9089    -5.2302 H       
  34 H34            1.0661     4.3788    -3.3774 H       
  35 H35            0.5495     1.3490     2.8079 H       
  36 H36            2.3262     1.3371     2.7013 H       
  37 H37            1.6473     2.4829     6.1184 H       
@<TRIPOS>BOND
   1    1    2 ar
   2    1    7 1
   3    1    6 ar
   4    2    3 ar
   5    2   23 1
   6    3    4 ar
   7    3   24 1
   8    4    5 ar
   9    4   25 1
  10    5    6 ar
  11    5   26 1
  12    6   27 1
  13    7    8 1
  14    7   18 1
  15    7   28 1
  16    8    9 1
  17    8   29 1
  18    8   30 1
  19    9   10 1
  20    9   17 2
  21   10   11 ar
  22   10   15 ar
  23   11   12 ar
  24   11   31 1
  25   12   13 ar
  26   12   32 1
  27   13   14 ar
  28   13   16 1
  29   14   15 ar
  30   14   33 1
  31   15   34 1
  32   18   19 1
  33   19   20 1
  34   19   35 1
  35   19   36 1
  36   20   21 1
  37   20   22 2
  38   21   37 1

#	End of record

