#	Name: ASD00670001
#	Creating user name:	WinNT
#	Creation time:	15. 06. 2019 18:37

#	Modifying user name:	WinNT
#	Modification time:	15. 06. 2019 18:37

#	Program:	/corina/corina34_cracker 3.40 0067  02.08.2006

@<TRIPOS>MOLECULE
ASD00670001
  51   55    0    0    0
SMALL
NO_CHARGES


@<TRIPOS>ATOM
   1 N1            -0.0342     1.4167     0.0240 N.am    
   2 C2             0.0146     0.0314     0.0215 C.ar    
   3 C3            -0.8435    -0.7658     0.7761 C.ar    
   4 C4            -1.8926    -0.2145     1.6479 C.2     
   5 N5            -2.6408     0.7891     1.3540 N.2     
   6 C6            -2.5100     1.5043     0.0852 C.3     
   7 C7            -1.1493     2.1438     0.0296 C.2     
   8 C8             0.9811    -0.5750    -0.7838 C.ar    
   9 C9             1.0917    -1.9468    -0.8359 C.ar    
  10 C10            0.2406    -2.7417    -0.0860 C.ar    
  11 C11           -0.7171    -2.1621     0.7132 C.ar    
  12 C12           -2.1029    -0.8645     2.9625 C.ar    
  13 O13           -1.0663     3.3528    -0.0183 O.2     
  14 N14           -2.6596     0.5622    -1.0267 N.am    
  15 C15            1.2414     2.1372     0.0267 C.3     
  16 C16           -3.8005     0.5418    -1.7439 C.2     
  17 O17           -4.7061     1.3058    -1.4680 O.2     
  18 C18           -3.9506    -0.4039    -2.8600 C.2     
  19 C19           -5.0479    -0.5186    -3.6530 C.2     
  20 C20           -4.7901    -1.5384    -4.6008 C.ar    
  21 C21           -3.4946    -2.0249    -4.3386 C.ar    
  22 N22           -2.9962    -1.3131    -3.2732 N.pl3   
  23 C23           -5.5376    -2.0873    -5.6510 C.ar    
  24 C24           -5.0065    -3.0878    -6.4114 C.ar    
  25 C25           -3.7290    -3.5698    -6.1545 C.ar    
  26 C26           -2.9744    -3.0463    -5.1289 C.ar    
  27 C27           -1.0722    -1.5927     3.5564 C.ar    
  28 C28           -1.2742    -2.1958     4.7808 C.ar    
  29 C29           -2.4959    -2.0793     5.4194 C.ar    
  30 C30           -3.5221    -1.3583     4.8353 C.ar    
  31 C31           -3.3304    -0.7458     3.6138 C.ar    
  32 H32           -3.2786     2.2744     0.0193 H       
  33 H33            1.6481     0.0380    -1.3719 H       
  34 H34            1.8432    -2.4036    -1.4629 H       
  35 H35            0.3293    -3.8172    -0.1285 H       
  36 H36           -1.3779    -2.7866     1.2961 H       
  37 H37           -1.9375    -0.0470    -1.2467 H       
  38 H38            1.5589     2.3177    -1.0003 H       
  39 H39            1.1196     3.0898     0.5421 H       
  40 H40            1.9949     1.5400     0.5402 H       
  41 H41           -5.9543     0.0633    -3.5742 H       
  42 H42           -2.1209    -1.4341    -2.8731 H       
  43 H43           -6.5318    -1.7196    -5.8578 H       
  44 H44           -5.5847    -3.5093    -7.2204 H       
  45 H45           -3.3236    -4.3625    -6.7659 H       
  46 H46           -1.9823    -3.4275    -4.9373 H       
  47 H47           -0.1182    -1.6846     3.0587 H       
  48 H48           -0.4770    -2.7603     5.2415 H       
  49 H49           -2.6494    -2.5535     6.3775 H       
  50 H50           -4.4738    -1.2712     5.3384 H       
  51 H51           -4.1322    -0.1832     3.1589 H       
@<TRIPOS>BOND
   1    1    2 1
   2    1   15 1
   3    1    7 am
   4    2    3 ar
   5    2    8 ar
   6    3    4 1
   7    3   11 ar
   8    4    5 2
   9    4   12 1
  10    5    6 1
  11    6    7 1
  12    6   14 1
  13    6   32 1
  14    7   13 2
  15    8    9 ar
  16    8   33 1
  17    9   10 ar
  18    9   34 1
  19   10   11 ar
  20   10   35 1
  21   11   36 1
  22   12   27 ar
  23   12   31 ar
  24   14   16 am
  25   14   37 1
  26   15   38 1
  27   15   39 1
  28   15   40 1
  29   16   17 2
  30   16   18 1
  31   18   19 2
  32   18   22 1
  33   19   20 1
  34   19   41 1
  35   20   21 ar
  36   20   23 ar
  37   21   22 1
  38   21   26 ar
  39   22   42 1
  40   23   24 ar
  41   23   43 1
  42   24   25 ar
  43   24   44 1
  44   25   26 ar
  45   25   45 1
  46   26   46 1
  47   27   28 ar
  48   27   47 1
  49   28   29 ar
  50   28   48 1
  51   29   30 ar
  52   29   49 1
  53   30   31 ar
  54   30   50 1
  55   31   51 1

#	End of record

