#	Name: ASD07930808
#	Creating user name:	WinNT
#	Creation time:	15. 06. 2019 21:13

#	Modifying user name:	WinNT
#	Modification time:	15. 06. 2019 21:13

#	Program:	/corina/corina34_cracker 3.40 0067  02.08.2006

@<TRIPOS>MOLECULE
ASD07930808
  51   54    0    0    0
SMALL
NO_CHARGES


@<TRIPOS>ATOM
   1 C1             0.0614     1.5200     0.5860 C.ar    
   2 C2             0.1618     0.2614     1.1783 C.ar    
   3 N3             1.1259     2.0623     0.0013 N.ar    
   4 N4             1.3127    -0.3861     1.1561 N.ar    
   5 C5             2.3671     0.1573     0.5738 C.ar    
   6 C6             2.2706     1.4091    -0.0163 C.ar    
   7 C7            -1.2284     2.2480     0.6027 C.2     
   8 O8            -2.2012     1.7487     1.1331 O.2     
   9 N9            -1.3232     3.4642     0.0297 N.am    
  10 C10            3.6785    -0.5848     0.5511 C.3     
  11 F11            3.4347    -1.9624     0.5437 F       
  12 F12            4.3943    -0.2316    -0.5978 F       
  13 C13           -2.5652     4.1034    -0.0538 C.ar    
  14 C14           -2.6454     5.4852     0.0625 C.ar    
  15 C15           -3.8719     6.1140    -0.0206 C.ar    
  16 C16           -5.0217     5.3679    -0.2198 C.ar    
  17 C17           -4.9440     3.9904    -0.3360 C.ar    
  18 C18           -3.7185     3.3578    -0.2587 C.ar    
  19 F19           -6.2208     5.9851    -0.3004 F       
  20 C20           -1.9772     8.8453    -0.5751 C.2     
  21 N21           -2.6518     8.2208     0.3278 N.2     
  22 C22           -3.9597     7.6131     0.1060 C.3     
  23 C23           -4.6841     8.2676    -1.0843 C.3     
  24 C24           -3.7365     8.7322    -2.1377 C.2     
  25 N25           -2.4489     9.0047    -1.8594 N.am    
  26 O26           -5.2054     9.4193     0.9436 O.3     
  27 C27           -4.8722     8.0549     1.2900 C.3     
  28 C28           -5.4797     9.4291    -0.4711 C.3     
  29 O29           -4.1367     8.8673    -3.2743 O.2     
  30 C30           -6.9762     9.2250    -0.7155 C.3     
  31 C31           -1.5510     9.4702    -2.9192 C.3     
  32 N32           -0.7522     9.3739    -0.2449 N.pl3   
  33 H33           -0.6998    -0.1827     1.6546 H       
  34 H34            3.1350     1.8492    -0.4910 H       
  35 H35           -0.5305     3.8964    -0.3248 H       
  36 H36            4.2592    -0.3234     1.4357 H       
  37 H37           -1.7491     6.0674     0.2182 H       
  38 H38           -5.8418     3.4104    -0.4909 H       
  39 H39           -3.6578     2.2837    -0.3535 H       
  40 H40           -5.3832     7.5525    -1.5179 H       
  41 H41           -5.7697     7.4381     1.3372 H       
  42 H42           -4.3267     8.0179     2.2330 H       
  43 H43           -5.1558    10.3741    -0.9072 H       
  44 H44           -7.2952     8.2897    -0.2556 H       
  45 H45           -7.5323    10.0536    -0.2771 H       
  46 H46           -7.1673     9.1862    -1.7879 H       
  47 H47           -0.5514     9.0697    -2.7504 H       
  48 H48           -1.9212     9.1278    -3.8855 H       
  49 H49           -1.5123    10.5595    -2.9102 H       
  50 H50           -0.4397     9.3376     0.6726 H       
  51 H51           -0.2002     9.7832    -0.9295 H       
@<TRIPOS>BOND
   1    1    2 ar
   2    1    3 ar
   3    1    7 1
   4    2    4 ar
   5    2   33 1
   6    3    6 ar
   7    4    5 ar
   8    5    6 ar
   9    5   10 1
  10    6   34 1
  11    7    8 2
  12    7    9 am
  13    9   13 1
  14    9   35 1
  15   10   11 1
  16   10   12 1
  17   10   36 1
  18   13   14 ar
  19   13   18 ar
  20   14   15 ar
  21   14   37 1
  22   15   16 ar
  23   15   22 1
  24   16   17 ar
  25   16   19 1
  26   17   18 ar
  27   17   38 1
  28   18   39 1
  29   20   21 2
  30   20   25 1
  31   20   32 1
  32   21   22 1
  33   22   27 1
  34   22   23 1
  35   23   24 1
  36   23   28 1
  37   23   40 1
  38   24   25 am
  39   24   29 2
  40   25   31 1
  41   26   27 1
  42   26   28 1
  43   27   41 1
  44   27   42 1
  45   28   30 1
  46   28   43 1
  47   30   44 1
  48   30   45 1
  49   30   46 1
  50   31   47 1
  51   31   48 1
  52   31   49 1
  53   32   50 1
  54   32   51 1

#	End of record

