#	Name: ASD01915405
#	Creating user name:	WinNT
#	Creation time:	15. 06. 2019 20:05

#	Modifying user name:	WinNT
#	Modification time:	15. 06. 2019 20:05

#	Program:	/corina/corina34_cracker 3.40 0067  02.08.2006

@<TRIPOS>MOLECULE
ASD01915405
  45   48    0    0    0
SMALL
NO_CHARGES


@<TRIPOS>ATOM
   1 C1             0.0196     1.4342     0.0198 C.ar    
   2 C2             1.2689     2.0219     0.0139 C.ar    
   3 N3             2.3632     1.2850    -0.0037 N.ar    
   4 C4             2.3095    -0.0375    -0.0160 C.ar    
   5 C5             1.0848    -0.6963    -0.0110 C.ar    
   6 C6            -0.0804     0.0494     0.0074 C.ar    
   7 N7             3.4905    -0.7761    -0.0345 N.am    
   8 C8             4.6772    -0.1468    -0.1442 C.2     
   9 C9             5.9332    -0.9175    -0.0490 C.ar    
  10 O10            4.7137     1.0554    -0.3215 O.2     
  11 C11            5.8896    -2.3009     0.1551 C.ar    
  12 C12            7.0555    -3.0269     0.2450 C.ar    
  13 C13            8.2900    -2.3873     0.1336 C.ar    
  14 C14            8.3424    -0.9934    -0.0721 C.ar    
  15 C15            7.1599    -0.2659    -0.1683 C.ar    
  16 C16            9.5402    -3.1687     0.2314 C.ar    
  17 C17            9.8488    -4.1196    -0.7281 C.ar    
  18 C18           11.0230    -4.8581    -0.6420 C.ar    
  19 C19           11.9006    -4.6703     0.3830 C.ar    
  20 C20           11.6277    -3.7164     1.3790 C.ar    
  21 C21           10.4396    -2.9499     1.3043 C.ar    
  22 C22            1.3842     3.5244     0.0273 C.3     
  23 C23           12.5173    -3.5041     2.4465 C.ar    
  24 C24           12.2225    -2.5720     3.3939 C.ar    
  25 C25           11.0498    -1.8236     3.3221 C.ar    
  26 C26           10.1690    -1.9985     2.2974 C.ar    
  27 C27            9.6064    -0.3303    -0.1873 C.1     
  28 N28           10.6091     0.1958    -0.2787 N.1     
  29 H29           -0.8707     2.0453     0.0384 H       
  30 H30            1.0438    -1.7755    -0.0218 H       
  31 H31           -1.0458    -0.4347     0.0120 H       
  32 H32            3.4587    -1.7433     0.0315 H       
  33 H33            4.9367    -2.8015     0.2428 H       
  34 H34            7.0143    -4.0946     0.4026 H       
  35 H35            7.1926     0.8020    -0.3262 H       
  36 H36            9.1699    -4.2887    -1.5508 H       
  37 H37           11.2436    -5.5941    -1.4010 H       
  38 H38           12.8071    -5.2554     0.4308 H       
  39 H39            1.4215     3.8768     1.0582 H       
  40 H40            2.2946     3.8236    -0.4921 H       
  41 H41            0.5199     3.9596    -0.4743 H       
  42 H42           13.4298    -4.0777     2.5149 H       
  43 H43           12.9075    -2.4107     4.2131 H       
  44 H44           10.8385    -1.0904     4.0864 H       
  45 H45            9.2635    -1.4115     2.2542 H       
@<TRIPOS>BOND
   1    1    2 ar
   2    1    6 ar
   3    1   29 1
   4    2    3 ar
   5    2   22 1
   6    3    4 ar
   7    4    5 ar
   8    4    7 1
   9    5    6 ar
  10    5   30 1
  11    6   31 1
  12    7    8 am
  13    7   32 1
  14    8    9 1
  15    8   10 2
  16    9   11 ar
  17    9   15 ar
  18   11   12 ar
  19   11   33 1
  20   12   13 ar
  21   12   34 1
  22   13   14 ar
  23   13   16 1
  24   14   15 ar
  25   14   27 1
  26   15   35 1
  27   16   17 ar
  28   16   21 ar
  29   17   18 ar
  30   17   36 1
  31   18   19 ar
  32   18   37 1
  33   19   20 ar
  34   19   38 1
  35   20   21 ar
  36   20   23 ar
  37   21   26 ar
  38   22   39 1
  39   22   40 1
  40   22   41 1
  41   23   24 ar
  42   23   42 1
  43   24   25 ar
  44   24   43 1
  45   25   26 ar
  46   25   44 1
  47   26   45 1
  48   27   28 3

#	End of record

