#	Name: ASD00450054
#	Creating user name:	WinNT
#	Creation time:	15. 06. 2019 18:36

#	Modifying user name:	WinNT
#	Modification time:	15. 06. 2019 18:36

#	Program:	/corina/corina34_cracker 3.40 0067  02.08.2006

@<TRIPOS>MOLECULE
ASD00450054
  53   55    0    0    0
SMALL
NO_CHARGES


@<TRIPOS>ATOM
   1 C1            -1.0357     1.0857     1.1192 C.ar    
   2 C2            -1.0269    -0.3145     1.0221 C.ar    
   3 C3             0.1027    -1.0229     1.3946 C.ar    
   4 C4             1.2231    -0.3551     1.8626 C.ar    
   5 C5             1.2264     1.0259     1.9629 C.ar    
   6 C6             0.1055     1.7546     1.5946 C.ar    
   7 C7            -2.2280     1.8478     0.7206 C.2     
   8 O8            -3.0949     2.0926     1.5382 O.2     
   9 N9            -2.3607     2.2752    -0.5507 N.am    
  10 N10            0.1102     3.1402     1.6957 N.pl3   
  11 C11            0.9896     3.7741     2.5801 C.ar    
  12 C12            1.3470     5.1026     2.3752 C.ar    
  13 C13            1.5031     3.0802     3.6676 C.ar    
  14 C14            2.3709     3.7086     4.5395 C.ar    
  15 C15            2.7292     5.0284     4.3310 C.ar    
  16 C16            2.2161     5.7255     3.2520 C.ar    
  17 F17            2.3197    -1.0564     2.2242 F       
  18 F18            0.8461     5.7832     1.3211 F       
  19 I19            4.0457     5.9758     5.6570 I       
  20 O20           -2.1220    -0.9715     0.5652 O.3     
  21 C21           -2.0423    -2.3210     0.4200 C.ar    
  22 C22           -2.1578    -3.1455     1.5295 C.ar    
  23 C23           -2.0764    -4.5215     1.3801 C.ar    
  24 C24           -1.8513    -2.8724    -0.8382 C.ar    
  25 C25           -1.7698    -4.2447    -0.9893 C.ar    
  26 N26           -2.1930    -5.3560     2.4975 N.am    
  27 C27           -1.8787    -5.0720     0.1153 C.ar    
  28 S28           -3.2200    -4.9492     3.7312 S.o2    
  29 N29           -4.7394    -4.8273     3.0841 N.am    
  30 O30           -3.2479    -6.0626     4.6137 O.2     
  31 O31           -2.8531    -3.6397     4.1434 O.2     
  32 O32           -1.7983    -6.4222    -0.0346 O.3     
  33 C33           -1.5948    -6.9168    -1.3597 C.3     
  34 C34           -1.5312    -8.4452    -1.3295 C.3     
  35 H35            0.1107    -2.1003     1.3203 H       
  36 H36            2.1044     1.5371     2.3292 H       
  37 H37           -1.6695     2.0799    -1.2027 H       
  38 H38           -3.1474     2.7780    -0.8138 H       
  39 H39           -0.4962     3.6682     1.1531 H       
  40 H40            1.2241     2.0499     3.8318 H       
  41 H41            2.7700     3.1688     5.3855 H       
  42 H42            2.4945     6.7570     3.0942 H       
  43 H43           -2.3107    -2.7161     2.5086 H       
  44 H44           -1.7664    -2.2290    -1.7015 H       
  45 H45           -1.6213    -4.6714    -1.9703 H       
  46 H46           -1.6722    -6.1728     2.5493 H       
  47 H47           -5.5163    -5.0282     3.6291 H       
  48 H48           -4.8526    -4.5549     2.1600 H       
  49 H49           -2.4207    -6.6000    -1.9966 H       
  50 H50           -0.6589    -6.5219    -1.7552 H       
  51 H51           -0.7052    -8.7619    -0.6926 H       
  52 H52           -2.4670    -8.8400    -0.9340 H       
  53 H53           -1.3760    -8.8224    -2.3403 H       
@<TRIPOS>BOND
   1    1    2 ar
   2    1    6 ar
   3    1    7 1
   4    2    3 ar
   5    2   20 1
   6    3    4 ar
   7    3   35 1
   8    4    5 ar
   9    4   17 1
  10    5    6 ar
  11    5   36 1
  12    6   10 1
  13    7    8 2
  14    7    9 am
  15    9   37 1
  16    9   38 1
  17   10   11 1
  18   10   39 1
  19   11   13 ar
  20   11   12 ar
  21   12   16 ar
  22   12   18 1
  23   13   14 ar
  24   13   40 1
  25   14   15 ar
  26   14   41 1
  27   15   16 ar
  28   15   19 1
  29   16   42 1
  30   20   21 1
  31   21   22 ar
  32   21   24 ar
  33   22   23 ar
  34   22   43 1
  35   23   27 ar
  36   23   26 1
  37   24   25 ar
  38   24   44 1
  39   25   27 ar
  40   25   45 1
  41   26   28 am
  42   26   46 1
  43   27   32 1
  44   28   29 am
  45   28   30 2
  46   28   31 2
  47   29   47 1
  48   29   48 1
  49   32   33 1
  50   33   34 1
  51   33   49 1
  52   33   50 1
  53   34   51 1
  54   34   52 1
  55   34   53 1

#	End of record

