#	Name: ASD02320005
#	Creating user name:	WinNT
#	Creation time:	15. 06. 2019 20:20

#	Modifying user name:	WinNT
#	Modification time:	15. 06. 2019 20:20

#	Program:	/corina/corina34_cracker 3.40 0067  02.08.2006

@<TRIPOS>MOLECULE
ASD02320005
  43   44    0    0    0
SMALL
NO_CHARGES


@<TRIPOS>ATOM
   1 C1            -0.0167     1.3812     0.0096 C.ar    
   2 C2             0.0021    -0.0041     0.0020 C.ar    
   3 C3             1.2026    -0.6879    -0.0127 C.ar    
   4 C4             2.3999     0.0095    -0.0200 C.ar    
   5 C5             2.3865     1.4142    -0.0128 C.ar    
   6 C6             1.1630     2.0930     0.0022 C.ar    
   7 C7             3.6306     3.5169    -0.0129 C.2     
   8 C8             3.6486     2.1655    -0.0199 C.2     
   9 C9             3.6486     6.4246     0.0016 C.ar    
  10 C10            4.8670     5.7388    -0.0123 C.ar    
  11 C11            4.8866     4.2646    -0.0200 C.2     
  12 C12            3.6344     7.8003     0.0082 C.ar    
  13 C13            4.8293     8.5136     0.0006 C.ar    
  14 C14            6.0440     7.8431    -0.0128 C.ar    
  15 C15            6.0715     6.4596    -0.0196 C.ar    
  16 O16            5.9496     3.6697    -0.0321 O.2     
  17 O17            4.8064     9.8705     0.0063 O.3     
  18 S18            4.8082    10.4839     1.3992 S.o2    
  19 O19            4.5807    11.8757     1.2251 O.2     
  20 O20            3.9798     9.6555     2.2035 O.2     
  21 O21            6.2199    10.3449     1.9509 O.3     
  22 Na22           7.5275    11.6189     1.1590 Du      
  23 O23            7.2582     5.8023    -0.0327 O.3     
  24 S24            7.8115     5.4958     1.3517 S.o2    
  25 O25            9.1280     4.9980     1.1565 O.2     
  26 O26            7.5205     6.6278     2.1598 O.2     
  27 O27            6.9954     4.3425     1.9178 O.3     
  28 Na28           7.4336     2.5728     1.1201 Du      
  29 O29            3.5794    -0.6610    -0.0335 O.3     
  30 S30            4.1053    -0.9603    -1.4301 S.o2    
  31 O31            5.2193    -1.8264    -1.2622 O.2     
  32 O32            2.9736    -1.2942    -2.2220 O.2     
  33 O33            4.6548     0.3424    -1.9934 O.3     
  34 Na34           6.4071     0.8831    -1.2207 Du      
  35 H35           -0.9607     1.9058     0.0170 H       
  36 H36           -0.9279    -0.5531     0.0080 H       
  37 H37            1.2079    -1.7679    -0.0182 H       
  38 H38            1.1433     3.1728     0.0075 H       
  39 H39            2.6882     4.0444    -0.0021 H       
  40 H40            4.5909     1.6380    -0.0307 H       
  41 H41            2.7191     5.8746     0.0027 H       
  42 H42            2.6925     8.3286     0.0190 H       
  43 H43            6.9686     8.4014    -0.0190 H       
@<TRIPOS>BOND
   1    1    2 ar
   2    1    6 ar
   3    1   35 1
   4    2    3 ar
   5    2   36 1
   6    3    4 ar
   7    3   37 1
   8    4    5 ar
   9    4   29 1
  10    5    6 ar
  11    5    8 1
  12    6   38 1
  13    7    8 2
  14    7   11 1
  15    7   39 1
  16    8   40 1
  17    9   10 ar
  18    9   12 ar
  19    9   41 1
  20   10   11 1
  21   10   15 ar
  22   11   16 2
  23   12   13 ar
  24   12   42 1
  25   13   14 ar
  26   13   17 1
  27   14   15 ar
  28   14   43 1
  29   15   23 1
  30   17   18 1
  31   18   19 2
  32   18   20 2
  33   18   21 1
  34   21   22 1
  35   23   24 1
  36   24   25 2
  37   24   26 2
  38   24   27 1
  39   27   28 1
  40   29   30 1
  41   30   31 2
  42   30   32 2
  43   30   33 1
  44   33   34 1

#	End of record

