#	Name: ASD03090474
#	Creating user name:	WinNT
#	Creation time:	15. 06. 2019 20:28

#	Modifying user name:	WinNT
#	Modification time:	15. 06. 2019 20:28

#	Program:	/corina/corina34_cracker 3.40 0067  02.08.2006

@<TRIPOS>MOLECULE
ASD03090474
  46   49    0    0    0
SMALL
NO_CHARGES


@<TRIPOS>ATOM
   1 C1            -2.3938     1.4907     0.1853 C.2     
   2 C2            -2.3818    -0.0158     0.2212 C.3     
   3 O3            -3.4489     2.0884     0.1644 O.2     
   4 N4            -1.2321     2.1740     0.1821 N.am    
   5 C5            -1.2397     3.5629     0.0436 C.ar    
   6 C6            -0.0502     4.2722     0.1639 C.ar    
   7 C7            -0.0689     5.6482     0.0245 C.ar    
   8 C8            -1.2871     6.2725    -0.2326 C.ar    
   9 C9            -2.4329     5.5005    -0.3397 C.ar    
  10 N10           -2.3781     4.1892    -0.2061 N.ar    
  11 O11           -1.3513     7.6229    -0.3763 O.3     
  12 C12           -0.2155     8.3408    -0.1739 C.ar    
  13 C13            0.7698     8.3727    -1.1505 C.ar    
  14 C14            1.9233     9.1036    -0.9424 C.ar    
  15 C15            2.0968     9.8027     0.2379 C.ar    
  16 C16            1.1167     9.7722     1.2128 C.ar    
  17 C17           -0.0414     9.0479     1.0072 C.ar    
  18 C18            3.3565    10.5988     0.4624 C.3     
  19 N19           -6.6502    -1.5076     2.4303 N.pl3   
  20 C20           -7.8262    -1.9483     1.8871 C.2     
  21 C21           -7.7389    -1.9508     0.5476 C.2     
  22 C22           -6.3974    -1.4726     0.2050 C.ar    
  23 C23           -5.7213    -1.2578    -0.9977 C.ar    
  24 C24           -4.4369    -0.7925    -0.9801 C.ar    
  25 C25           -3.7985    -0.5296     0.2244 C.ar    
  26 C26           -4.4469    -0.7340     1.4224 C.ar    
  27 C27           -5.7549    -1.2082     1.4281 C.ar    
  28 H28           -1.8594    -0.3960    -0.6567 H       
  29 H29           -1.8707    -0.3537     1.1227 H       
  30 H30           -0.3907     1.7006     0.2759 H       
  31 H31            0.8768     3.7554     0.3641 H       
  32 H32            0.8398     6.2251     0.1133 H       
  33 H33           -3.3811     5.9776    -0.5389 H       
  34 H34            0.6351     7.8262    -2.0722 H       
  35 H35            2.6905     9.1287    -1.7021 H       
  36 H36            1.2548    10.3188     2.1340 H       
  37 H37           -0.8085     9.0280     1.7672 H       
  38 H38            3.2147    11.6148     0.0939 H       
  39 H39            3.5833    10.6272     1.5281 H       
  40 H40            4.1826    10.1303    -0.0726 H       
  41 H41           -6.4748    -1.4159     3.3799 H       
  42 H42           -8.6957    -2.2499     2.4524 H       
  43 H43           -8.5113    -2.2489    -0.1460 H       
  44 H44           -6.2115    -1.4602    -1.9386 H       
  45 H45           -3.9143    -0.6269    -1.9106 H       
  46 H46           -3.9417    -0.5268     2.3542 H       
@<TRIPOS>BOND
   1    1    2 1
   2    1    3 2
   3    1    4 am
   4    2   25 1
   5    2   28 1
   6    2   29 1
   7    4    5 1
   8    4   30 1
   9    5    6 ar
  10    5   10 ar
  11    6    7 ar
  12    6   31 1
  13    7    8 ar
  14    7   32 1
  15    8    9 ar
  16    8   11 1
  17    9   10 ar
  18    9   33 1
  19   11   12 1
  20   12   13 ar
  21   12   17 ar
  22   13   14 ar
  23   13   34 1
  24   14   15 ar
  25   14   35 1
  26   15   16 ar
  27   15   18 1
  28   16   17 ar
  29   16   36 1
  30   17   37 1
  31   18   38 1
  32   18   39 1
  33   18   40 1
  34   19   20 1
  35   19   27 1
  36   19   41 1
  37   20   21 2
  38   20   42 1
  39   21   22 1
  40   21   43 1
  41   22   23 ar
  42   22   27 ar
  43   23   24 ar
  44   23   44 1
  45   24   25 ar
  46   24   45 1
  47   25   26 ar
  48   26   27 ar
  49   26   46 1

#	End of record

