#	Name: ASD01814021
#	Creating user name:	WinNT
#	Creation time:	15. 06. 2019 19:31

#	Modifying user name:	WinNT
#	Modification time:	15. 06. 2019 19:31

#	Program:	/corina/corina34_cracker 3.40 0067  02.08.2006

@<TRIPOS>MOLECULE
ASD01814021
  45   48    0    0    0
SMALL
NO_CHARGES


@<TRIPOS>ATOM
   1 C1            -0.0167     1.3820     0.0096 C.ar    
   2 C2             0.0021    -0.0041     0.0020 C.ar    
   3 C3             1.1959    -0.6932    -0.0127 C.ar    
   4 C4             2.4016     0.0019    -0.0205 C.ar    
   5 C5             2.3831     1.4075    -0.0132 C.ar    
   6 C6             1.1665     2.0939     0.0022 C.ar    
   7 N7             3.6010    -0.6771    -0.0346 N.pl3   
   8 C8             4.7870    -0.0549    -0.0418 C.2     
   9 C9             4.8957     1.3208    -0.0358 C.2     
  10 C10            3.6666     2.1313    -0.0216 C.2     
  11 F11            1.1476     3.4448     0.0091 F       
  12 O12            3.7090     3.3491    -0.0163 O.2     
  13 C13            6.2161     1.9660    -0.0431 C.2     
  14 O14            6.3092     3.3109    -0.0372 O.3     
  15 O15            7.2244     1.2870    -0.0544 O.2     
  16 C16            3.5775    -2.1419    -0.0418 C.3     
  17 C17            3.5567    -2.6371    -1.4649 C.ar    
  18 C18            4.7452    -2.8830    -2.1275 C.ar    
  19 C19            4.7293    -3.3368    -3.4319 C.ar    
  20 C20            3.5184    -3.5466    -4.0776 C.ar    
  21 C21            2.3268    -3.2993    -3.4098 C.ar    
  22 C22            2.3490    -2.8501    -2.1038 C.ar    
  23 N23            3.4990    -4.0069    -5.4021 N.pl3   
  24 C24            4.5800    -4.2893    -6.1747 C.2     
  25 N25            4.1616    -4.6906    -7.3441 N.2     
  26 C26            2.8205    -4.6804    -7.3638 C.2     
  27 C27            2.3854    -4.2626    -6.1599 C.2     
  28 C28            1.9508    -5.0740    -8.5298 C.3     
  29 O29            0.5757    -4.9305    -8.1683 O.3     
  30 H30           -0.9604     1.9071     0.0170 H       
  31 H31           -0.9295    -0.5505     0.0080 H       
  32 H32            1.1956    -1.7731    -0.0177 H       
  33 H33            5.6884    -0.6497    -0.0521 H       
  34 H34            7.1990     3.6894    -0.0423 H       
  35 H35            4.4661    -2.5220     0.4622 H       
  36 H36            2.6865    -2.4935     0.4783 H       
  37 H37            5.6870    -2.7196    -1.6246 H       
  38 H38            5.6579    -3.5280    -3.9491 H       
  39 H39            1.3833    -3.4612    -3.9098 H       
  40 H40            1.4223    -2.6575    -1.5837 H       
  41 H41            5.6126    -4.1968    -5.8722 H       
  42 H42            1.3568    -4.1444    -5.8526 H       
  43 H43            2.1717    -4.4305    -9.3814 H       
  44 H44            2.1497    -6.1118    -8.7974 H       
  45 H45           -0.0429    -5.1672    -8.8729 H       
@<TRIPOS>BOND
   1    1    2 ar
   2    1    6 ar
   3    1   30 1
   4    2    3 ar
   5    2   31 1
   6    3    4 ar
   7    3   32 1
   8    4    5 ar
   9    4    7 1
  10    5    6 ar
  11    5   10 1
  12    6   11 1
  13    7    8 1
  14    7   16 1
  15    8    9 2
  16    8   33 1
  17    9   10 1
  18    9   13 1
  19   10   12 2
  20   13   14 1
  21   13   15 2
  22   14   34 1
  23   16   17 1
  24   16   35 1
  25   16   36 1
  26   17   18 ar
  27   17   22 ar
  28   18   19 ar
  29   18   37 1
  30   19   20 ar
  31   19   38 1
  32   20   21 ar
  33   20   23 1
  34   21   22 ar
  35   21   39 1
  36   22   40 1
  37   23   24 1
  38   23   27 1
  39   24   25 2
  40   24   41 1
  41   25   26 1
  42   26   27 2
  43   26   28 1
  44   27   42 1
  45   28   29 1
  46   28   43 1
  47   28   44 1
  48   29   45 1

#	End of record

