#	Name: ASD01917905
#	Creating user name:	WinNT
#	Creation time:	15. 06. 2019 20:10

#	Modifying user name:	WinNT
#	Modification time:	15. 06. 2019 20:10

#	Program:	/corina/corina34_cracker 3.40 0067  02.08.2006

@<TRIPOS>MOLECULE
ASD01917905
  43   46    0    0    0
SMALL
NO_CHARGES


@<TRIPOS>ATOM
   1 C1             0.0463     1.0810    -0.4509 C.2     
   2 C2            -0.0495    -0.2611    -0.4094 C.2     
   3 C3            -1.3668    -0.9908    -0.1963 C.3     
   4 C4            -2.3825    -0.0233     0.4160 C.3     
   5 N5            -2.3514     1.2434    -0.3305 N.am    
   6 C6            -1.1116     2.0381    -0.2837 C.3     
   7 C7            -3.4218     1.6633    -1.0337 C.2     
   8 O8            -4.3902     0.9372    -1.1593 O.2     
   9 S9             1.7276     1.5175    -0.7216 S.3     
  10 C10            2.1596    -0.1360    -0.7514 C.2     
  11 N11            1.1173    -0.8692    -0.5744 N.2     
  12 C12            3.5580    -0.6591    -0.9559 C.3     
  13 O13            3.7945    -0.8536    -2.3517 O.3     
  14 C14            5.0176    -1.3251    -2.7104 C.ar    
  15 C15            5.3153    -1.5374    -4.0487 C.ar    
  16 C16            6.5593    -2.0167    -4.4107 C.ar    
  17 C17            7.5073    -2.2849    -3.4406 C.ar    
  18 C18            7.2129    -2.0746    -2.1061 C.ar    
  19 C19            5.9725    -1.5896    -1.7393 C.ar    
  20 C20           -3.4195     2.9963    -1.6478 C.2     
  21 C21           -2.5481     4.0165    -1.3884 C.2     
  22 N22           -2.8920     5.0509    -2.1560 N.2     
  23 C23           -3.9328     4.7335    -2.8829 C.2     
  24 N24           -4.2942     3.4676    -2.6076 N.pl3   
  25 C25           -5.4069     2.7291    -3.2097 C.3     
  26 H26           -1.7410    -1.3543    -1.1533 H       
  27 H27           -1.2122    -1.8323     0.4790 H       
  28 H28           -3.3807    -0.4571     0.3564 H       
  29 H29           -2.1262     0.1620     1.4591 H       
  30 H30           -1.0356     2.5496     0.6758 H       
  31 H31           -1.1080     2.7669    -1.0942 H       
  32 H32            4.2762     0.0604    -0.5625 H       
  33 H33            3.6710    -1.6085    -0.4324 H       
  34 H34            4.5750    -1.3284    -4.8067 H       
  35 H35            6.7914    -2.1825    -5.4524 H       
  36 H36            8.4793    -2.6596    -3.7257 H       
  37 H37            7.9548    -2.2856    -1.3502 H       
  38 H38            5.7430    -1.4254    -0.6969 H       
  39 H39           -1.7274     3.9897    -0.6869 H       
  40 H40           -4.4216     5.3836    -3.5935 H       
  41 H41           -6.2837     2.8052    -2.5667 H       
  42 H42           -5.6361     3.1514    -4.1881 H       
  43 H43           -5.1288     1.6812    -3.3224 H       
@<TRIPOS>BOND
   1    1    2 2
   2    1    9 1
   3    1    6 1
   4    2    3 1
   5    2   11 1
   6    3    4 1
   7    3   26 1
   8    3   27 1
   9    4    5 1
  10    4   28 1
  11    4   29 1
  12    5    6 1
  13    5    7 am
  14    6   30 1
  15    6   31 1
  16    7    8 2
  17    7   20 1
  18    9   10 1
  19   10   11 2
  20   10   12 1
  21   12   13 1
  22   12   32 1
  23   12   33 1
  24   13   14 1
  25   14   15 ar
  26   14   19 ar
  27   15   16 ar
  28   15   34 1
  29   16   17 ar
  30   16   35 1
  31   17   18 ar
  32   17   36 1
  33   18   19 ar
  34   18   37 1
  35   19   38 1
  36   20   21 2
  37   20   24 1
  38   21   22 1
  39   21   39 1
  40   22   23 2
  41   23   24 1
  42   23   40 1
  43   24   25 1
  44   25   41 1
  45   25   42 1
  46   25   43 1

#	End of record

