#	Name: ASD07930076
#	Creating user name:	WinNT
#	Creation time:	15. 06. 2019 21:11

#	Modifying user name:	WinNT
#	Modification time:	15. 06. 2019 21:11

#	Program:	/corina/corina34_cracker 3.40 0067  02.08.2006

@<TRIPOS>MOLECULE
ASD07930076
  55   59    0    0    0
SMALL
NO_CHARGES


@<TRIPOS>ATOM
   1 C1            -0.0180     1.4754     0.0102 C.2     
   2 C2             0.0021    -0.0041     0.0020 C.2     
   3 N3             1.1814     2.1509     0.0023 N.am    
   4 N4             1.1194    -0.6400     0.4288 N.am    
   5 C5             2.2493     0.1650     0.9143 C.3     
   6 C6             2.4261     1.3707    -0.0208 C.3     
   7 C7            -1.2008     2.1485     0.0195 C.2     
   8 C8            -1.2247     3.5486     0.0291 C.2     
   9 C9            -0.0458     4.2425     0.0303 C.2     
  10 C10            1.2139     3.4948     0.0143 C.2     
  11 O11           -0.9642    -0.6358    -0.3794 O.2     
  12 O12            2.2807     4.0852     0.0118 O.2     
  13 C13            1.2002    -2.1026     0.4064 C.3     
  14 C14            1.7676    -2.5615    -0.9383 C.3     
  15 O15            3.1161    -2.1063    -1.0666 O.3     
  16 C16            3.7701    -2.4311    -2.2115 C.ar    
  17 C17            5.0942    -2.0187    -2.4060 C.ar    
  18 C18            5.7565    -2.3579    -3.5858 C.ar    
  19 C19            5.1053    -3.0960    -4.5525 C.ar    
  20 C20            3.7967    -3.5018    -4.3568 C.ar    
  21 C21            3.1320    -3.1767    -3.1895 C.ar    
  22 S22            5.1547    -0.7071     0.1496 S.3     
  23 N23            6.5821     0.0828     0.6261 N.2     
  24 C24            7.4243    -0.0864    -0.3538 C.2     
  25 N25            7.0217    -0.7673    -1.3975 N.2     
  26 C26            5.7861    -1.2278    -1.3667 C.2     
  27 C27            8.8177     0.4839    -0.2883 C.3     
  28 F28            9.1082     0.8550     1.0289 F       
  29 F29            9.7369    -0.4807    -0.7146 F       
  30 F30            8.9014     1.6069    -1.1184 F       
  31 C31            0.4239     6.4402     1.0348 C.2     
  32 N32            0.2552     7.6848     0.6804 N.2     
  33 C33           -0.3161     7.7283    -0.5326 C.2     
  34 C34           -0.5113     6.4636    -0.9513 C.2     
  35 N35           -0.0431     5.6402     0.0404 N.pl3   
  36 C36           -0.6774     8.9771    -1.2948 C.3     
  37 H37            2.0426     0.5136     1.9261 H       
  38 H38            3.1572    -0.4381     0.9099 H       
  39 H39            2.6247     1.0242    -1.0350 H       
  40 H40            3.2543     1.9881     0.3270 H       
  41 H41           -2.1297     1.5976     0.0190 H       
  42 H42           -2.1668     4.0767     0.0353 H       
  43 H43            1.8522    -2.4428     1.2110 H       
  44 H44            0.2042    -2.5236     0.5432 H       
  45 H45            1.7451    -3.6500    -0.9897 H       
  46 H46            1.1658    -2.1470    -1.7471 H       
  47 H47            6.7776    -2.0428    -3.7425 H       
  48 H48            5.6187    -3.3579    -5.4659 H       
  49 H49            3.2938    -4.0793    -5.1183 H       
  50 H50            2.1125    -3.5007    -3.0412 H       
  51 H51            0.8650     6.1025     1.9610 H       
  52 H52           -0.9521     6.1566    -1.8883 H       
  53 H53            0.1651     9.2797    -1.9167 H       
  54 H54           -1.5430     8.7793    -1.9270 H       
  55 H55           -0.9156     9.7756    -0.5921 H       
@<TRIPOS>BOND
   1    1    2 1
   2    1    3 1
   3    1    7 2
   4    2    4 am
   5    2   11 2
   6    3    6 1
   7    3   10 am
   8    4    5 1
   9    4   13 1
  10    5    6 1
  11    5   37 1
  12    5   38 1
  13    6   39 1
  14    6   40 1
  15    7    8 1
  16    7   41 1
  17    8    9 2
  18    8   42 1
  19    9   10 1
  20    9   35 1
  21   10   12 2
  22   13   14 1
  23   13   43 1
  24   13   44 1
  25   14   15 1
  26   14   45 1
  27   14   46 1
  28   15   16 1
  29   16   17 ar
  30   16   21 ar
  31   17   18 ar
  32   17   26 1
  33   18   19 ar
  34   18   47 1
  35   19   20 ar
  36   19   48 1
  37   20   21 ar
  38   20   49 1
  39   21   50 1
  40   22   23 1
  41   22   26 1
  42   23   24 2
  43   24   25 1
  44   24   27 1
  45   25   26 2
  46   27   28 1
  47   27   29 1
  48   27   30 1
  49   31   32 2
  50   31   35 1
  51   31   51 1
  52   32   33 1
  53   33   34 2
  54   33   36 1
  55   34   35 1
  56   34   52 1
  57   36   53 1
  58   36   54 1
  59   36   55 1

#	End of record

