#	Name: ASD01948206
#	Creating user name:	WinNT
#	Creation time:	15. 06. 2019 20:13

#	Modifying user name:	WinNT
#	Modification time:	15. 06. 2019 20:13

#	Program:	/corina/corina34_cracker 3.40 0067  02.08.2006

@<TRIPOS>MOLECULE
ASD01948206
  41   43    0    0    0
SMALL
NO_CHARGES


@<TRIPOS>ATOM
   1 C1             0.1167     1.1116    -0.3561 C.ar    
   2 C2             0.1672    -0.2383    -0.1129 C.ar    
   3 C3             1.3531    -0.8410     0.3215 C.ar    
   4 C4             2.4939    -0.0647     0.5096 C.ar    
   5 C5             2.4506     1.3016     0.2660 C.ar    
   6 C6             1.2577     1.8978    -0.1700 C.ar    
   7 C7            -0.8586    -1.3403    -0.2136 C.3     
   8 N8            -0.1767    -2.5759     0.1868 N.am    
   9 C9             1.0990    -2.2870     0.4953 C.2     
  10 C10            2.7649     2.7780     2.6129 C.ar    
  11 C11            3.7263     2.8467     1.6141 C.ar    
  12 N12            3.5878     2.0777     0.4535 N.pl3   
  13 C13            2.9039     3.5389     3.7579 C.ar    
  14 C14            3.9995     4.3694     3.9103 C.ar    
  15 C15            4.9609     4.4409     2.9173 C.ar    
  16 C16            4.8279     3.6823     1.7693 C.ar    
  17 F17            5.7662     3.7520     0.7998 F       
  18 Br18           4.1843     5.4090     5.4790 Br      
  19 O19            1.9254    -3.0982     0.8638 O.2     
  20 C20            1.2073     3.3500    -0.4304 C.2     
  21 O21            2.2236     4.0143    -0.3687 O.2     
  22 N22            0.0345     3.9394    -0.7364 N.am    
  23 O23           -0.0139     5.3324    -0.9862 O.3     
  24 C24           -1.3197     5.8220    -1.2980 C.3     
  25 C25           -1.2528     7.3300    -1.5477 C.3     
  26 O26           -0.4651     7.5855    -2.7123 O.3     
  27 H27           -0.8028     1.5654    -0.6953 H       
  28 H28            3.4115    -0.5250     0.8451 H       
  29 H29           -1.6924    -1.1382     0.4588 H       
  30 H30           -1.2166    -1.4259    -1.2395 H       
  31 H31           -0.5805    -3.4571     0.2232 H       
  32 H32            1.9065     2.1336     2.4932 H       
  33 H33            4.2856     2.0863    -0.2202 H       
  34 H34            2.1558     3.4853     4.5350 H       
  35 H35            5.8151     5.0906     3.0389 H       
  36 H36           -0.7764     3.4094    -0.7856 H       
  37 H37           -1.6912     5.3218    -2.1924 H       
  38 H38           -1.9918     5.6212    -0.4637 H       
  39 H39           -2.2601     7.7184    -1.6979 H       
  40 H40           -0.7987     7.8209    -0.6870 H       
  41 H41           -0.3795     8.5235    -2.9312 H       
@<TRIPOS>BOND
   1    1    2 ar
   2    1    6 ar
   3    1   27 1
   4    2    3 ar
   5    2    7 1
   6    3    4 ar
   7    3    9 1
   8    4    5 ar
   9    4   28 1
  10    5    6 ar
  11    5   12 1
  12    6   20 1
  13    7    8 1
  14    7   29 1
  15    7   30 1
  16    8    9 am
  17    8   31 1
  18    9   19 2
  19   10   11 ar
  20   10   13 ar
  21   10   32 1
  22   11   12 1
  23   11   16 ar
  24   12   33 1
  25   13   14 ar
  26   13   34 1
  27   14   15 ar
  28   14   18 1
  29   15   16 ar
  30   15   35 1
  31   16   17 1
  32   20   21 2
  33   20   22 am
  34   22   23 1
  35   22   36 1
  36   23   24 1
  37   24   25 1
  38   24   37 1
  39   24   38 1
  40   25   26 1
  41   25   39 1
  42   25   40 1
  43   26   41 1

#	End of record

