#	Name: ASD01811965
#	Creating user name:	WinNT
#	Creation time:	15. 06. 2019 19:27

#	Modifying user name:	WinNT
#	Modification time:	15. 06. 2019 19:27

#	Program:	/corina/corina34_cracker 3.40 0067  02.08.2006

@<TRIPOS>MOLECULE
ASD01811965
  40   42    0    0    0
SMALL
NO_CHARGES


@<TRIPOS>ATOM
   1 C1             0.4917     4.1826    -2.8542 C.ar    
   2 C2            -0.0288     3.5195    -1.7542 C.ar    
   3 C3             0.8130     2.8688    -0.8803 C.ar    
   4 C4             2.1998     2.8697    -1.0929 C.ar    
   5 C5             2.7204     3.5385    -2.1995 C.ar    
   6 C6             1.8514     4.1925    -3.0753 C.ar    
   7 C7             3.0392     2.1514    -0.1213 C.2     
   8 N8             4.0585     1.4277    -0.4230 N.2     
   9 C9             4.4973     1.2509    -1.8067 C.3     
  10 C10            4.9289     2.5837    -2.3548 C.2     
  11 N11            4.0748     3.5961    -2.4862 N.am    
  12 S12            6.4536     2.7897    -2.7904 S.2     
  13 C13            2.6838     2.2712     1.3120 C.ar    
  14 C14            1.9504     3.3688     1.7621 C.ar    
  15 C15            1.6221     3.4746     3.0981 C.ar    
  16 C16            2.0192     2.4949     3.9906 C.ar    
  17 C17            2.7473     1.4040     3.5502 C.ar    
  18 C18            3.0764     1.2840     2.2155 C.ar    
  19 Cl19          -1.7426     3.5100    -1.4776 Cl      
  20 C20            3.3409     0.7023    -2.6449 C.3     
  21 O21            2.1112     0.8920    -1.9421 O.3     
  22 C22            3.2837     1.4437    -3.9821 C.3     
  23 C23            3.5583    -0.7908    -2.8985 C.3     
  24 H24           -0.1700     4.6885    -3.5416 H       
  25 H25            0.4026     2.3538    -0.0243 H       
  26 H26            2.2492     4.7109    -3.9351 H       
  27 H27            5.3354     0.5547    -1.8378 H       
  28 H28            4.4282     4.4403    -2.8077 H       
  29 H29            1.6404     4.1346     1.0664 H       
  30 H30            1.0542     4.3240     3.4479 H       
  31 H31            1.7602     2.5822     5.0354 H       
  32 H32            3.0548     0.6426     4.2516 H       
  33 H33            3.6445     0.4318     1.8728 H       
  34 H34            1.8165     0.1146    -1.4483 H       
  35 H35            4.2216     1.2990    -4.5182 H       
  36 H36            2.4598     1.0528    -4.5793 H       
  37 H37            3.1288     2.5074    -3.8014 H       
  38 H38            3.5991    -1.3190    -1.9459 H       
  39 H39            2.7345    -1.1816    -3.4957 H       
  40 H40            4.4963    -0.9355    -3.4346 H       
@<TRIPOS>BOND
   1    1    2 ar
   2    1    6 ar
   3    1   24 1
   4    2    3 ar
   5    2   19 1
   6    3    4 ar
   7    3   25 1
   8    4    5 ar
   9    4    7 1
  10    5    6 ar
  11    5   11 1
  12    6   26 1
  13    7    8 2
  14    7   13 1
  15    8    9 1
  16    9   10 1
  17    9   20 1
  18    9   27 1
  19   10   11 am
  20   10   12 2
  21   11   28 1
  22   13   14 ar
  23   13   18 ar
  24   14   15 ar
  25   14   29 1
  26   15   16 ar
  27   15   30 1
  28   16   17 ar
  29   16   31 1
  30   17   18 ar
  31   17   32 1
  32   18   33 1
  33   20   21 1
  34   20   22 1
  35   20   23 1
  36   21   34 1
  37   22   35 1
  38   22   36 1
  39   22   37 1
  40   23   38 1
  41   23   39 1
  42   23   40 1

#	End of record

