#	Name: ASD01900012
#	Creating user name:	WinNT
#	Creation time:	15. 06. 2019 19:51

#	Modifying user name:	WinNT
#	Modification time:	15. 06. 2019 19:51

#	Program:	/corina/corina34_cracker 3.40 0067  02.08.2006

@<TRIPOS>MOLECULE
ASD01900012
  34   36    0    0    0
SMALL
NO_CHARGES


@<TRIPOS>ATOM
   1 C1            -0.0168     1.3887     0.0097 C.ar    
   2 C2             0.0021    -0.0041     0.0020 C.ar    
   3 C3             1.1794    -0.6880    -0.0124 C.ar    
   4 C4             2.3946     0.0171    -0.0201 C.ar    
   5 C5             2.3754     1.4340    -0.0129 C.ar    
   6 C6             1.1414     2.1048     0.0025 C.ar    
   7 N7             3.5667    -0.6296    -0.0338 N.ar    
   8 C8             4.6927     0.0596    -0.0405 C.ar    
   9 C9             4.6687     1.4659    -0.0333 C.ar    
  10 N10            3.5294     2.1140    -0.0198 N.ar    
  11 C11            5.9648     2.2347    -0.0411 C.3     
  12 N12            5.9077    -0.6077    -0.0542 N.pl3   
  13 N13            5.9376    -2.0084    -0.0609 N.2     
  14 C14            7.0753    -2.6332    -0.0737 C.2     
  15 C15            7.1068    -4.1075    -0.0808 C.ar    
  16 C16            8.3294    -4.7833    -0.0946 C.ar    
  17 C17            8.3511    -6.1624    -0.1007 C.ar    
  18 C18            7.1659    -6.8764    -0.0937 C.ar    
  19 C19            5.9512    -6.2137    -0.0805 C.ar    
  20 C20            5.9142    -4.8350    -0.0680 C.ar    
  21 H21           -0.9637     1.9081     0.0170 H       
  22 H22           -0.9302    -0.5492     0.0080 H       
  23 H23            1.1791    -1.7680    -0.0175 H       
  24 H24            1.1113     3.1843     0.0078 H       
  25 H25            6.2681     2.4252    -1.0706 H       
  26 H26            5.8280     3.1830     0.4787 H       
  27 H27            6.7359     1.6521     0.4630 H       
  28 H28            6.7372    -0.1049    -0.0591 H       
  29 H29            7.9989    -2.0734    -0.0792 H       
  30 H30            9.2552    -4.2273    -0.1009 H       
  31 H31            9.2955    -6.6862    -0.1114 H       
  32 H32            7.1889    -7.9562    -0.0989 H       
  33 H33            5.0300    -6.7774    -0.0757 H       
  34 H34            4.9655    -4.3190    -0.0576 H       
@<TRIPOS>BOND
   1    1    2 ar
   2    1    6 ar
   3    1   21 1
   4    2    3 ar
   5    2   22 1
   6    3    4 ar
   7    3   23 1
   8    4    5 ar
   9    4    7 ar
  10    5    6 ar
  11    5   10 ar
  12    6   24 1
  13    7    8 ar
  14    8    9 ar
  15    8   12 1
  16    9   10 ar
  17    9   11 1
  18   11   25 1
  19   11   26 1
  20   11   27 1
  21   12   13 1
  22   12   28 1
  23   13   14 2
  24   14   15 1
  25   14   29 1
  26   15   16 ar
  27   15   20 ar
  28   16   17 ar
  29   16   30 1
  30   17   18 ar
  31   17   31 1
  32   18   19 ar
  33   18   32 1
  34   19   20 ar
  35   19   33 1
  36   20   34 1

#	End of record

