#	Name: ASD00843462
#	Creating user name:	WinNT
#	Creation time:	15. 06. 2019 18:46

#	Modifying user name:	WinNT
#	Modification time:	15. 06. 2019 18:46

#	Program:	/corina/corina34_cracker 3.40 0067  02.08.2006

@<TRIPOS>MOLECULE
ASD00843462
  89   94    0    0    0
SMALL
NO_CHARGES


@<TRIPOS>ATOM
   1 F1             5.5839    -2.7425    -1.8766 F       
   2 N2             0.8139     0.9541    -0.4817 N.ar    
   3 C3             0.9766    -0.3429    -0.6825 C.ar    
   4 C4             0.8018    -1.2475     0.3572 C.ar    
   5 C5             0.4543    -0.7741     1.6102 C.ar    
   6 C6             0.2930     0.5943     1.7797 C.ar    
   7 C7             0.4827     1.4354     0.7016 C.ar    
   8 C8             0.9878    -2.7246     0.1235 C.3     
   9 C9             0.6051    -3.5095     1.3602 C.2     
  10 C10            0.1616    -3.1837    -1.0796 C.3     
  11 C11           -1.2786    -2.7870    -0.8809 C.2     
  12 N12           -2.2147    -3.1820    -1.7664 N.am    
  13 O13           -1.5952    -2.1123     0.0759 O.2     
  14 C14           -3.6054    -2.7168    -1.6527 C.3     
  15 C15           -4.0435    -2.1559    -3.0097 C.3     
  16 N16           -3.8092    -3.1645    -4.0517 N.3     
  17 C17           -2.3791    -3.4746    -4.1811 C.3     
  18 C18           -1.8714    -4.0848    -2.8756 C.3     
  19 N19           -4.3671    -2.7378    -5.3248 N.3     
  20 C20           -4.1327    -3.7469    -6.3671 C.3     
  21 C21           -4.8022    -3.2976    -7.6681 C.3     
  22 N22           -4.2588    -1.9929    -8.0704 N.3     
  23 C23           -4.4932    -0.9838    -7.0280 C.3     
  24 C24           -3.8237    -1.4331    -5.7271 C.3     
  25 C25           -4.8225    -1.5618    -9.3567 C.3     
  26 O26           -0.4886    -3.5408     1.8837 O.2     
  27 N27            1.7043    -4.1655     1.7685 N.am    
  28 C28            2.4500    -3.0485    -0.0800 C.ar    
  29 C29            2.8045    -3.9166     0.9451 C.ar    
  30 C30            3.3731    -2.6549    -1.0224 C.ar    
  31 C31            4.6745    -3.1264    -0.9542 C.ar    
  32 C32            5.0398    -3.9927     0.0637 C.ar    
  33 C33            4.1139    -4.3875     1.0089 C.ar    
  34 Cl34           6.6695    -4.5846     0.1510 Cl      
  35 C35            1.3390    -6.7788     2.5504 C.ar    
  36 C36            0.0734    -7.0432     2.0480 C.ar    
  37 C37            2.2794    -7.7889     2.6172 C.ar    
  38 C38            1.9598    -9.0621     2.1836 C.ar    
  39 C39            0.6988    -9.3283     1.6824 C.ar    
  40 C40           -0.2449    -8.3220     1.6139 C.ar    
  41 H41            0.4516   -10.3237     1.3442 H       
  42 O42           -0.8534    -6.0515     1.9817 O.3     
  43 C43           -2.1356    -6.3961     1.4533 C.3     
  44 C44           -3.0378    -5.1604     1.4574 C.3     
  45 S45            1.7496    -5.1545     3.0959 S.o2    
  46 O46            3.1067    -5.2027     3.5143 O.2     
  47 O47            0.6891    -4.7362     3.9443 O.2     
  48 O48            1.3170    -0.7943    -1.9159 O.3     
  49 C49            1.4195     0.1787    -2.9574 C.3     
  50 C50            1.9133    -0.4959    -4.2388 C.3     
  51 F51            3.1267    -1.1449    -3.9863 F       
  52 F52            0.9652    -1.4305    -4.6689 F       
  53 H53            0.3114    -1.4537     2.4373 H       
  54 H54            0.0217     0.9965     2.7446 H       
  55 H55            0.3589     2.5008     0.8282 H       
  56 H56            0.5462    -2.7141    -1.9850 H       
  57 H57            0.2301    -4.2673    -1.1752 H       
  58 H58           -4.2493    -3.5518    -1.3764 H       
  59 H59           -3.6693    -1.9353    -0.8955 H       
  60 H60           -5.1044    -1.9080    -2.9754 H       
  61 H61           -3.4672    -1.2587    -3.2357 H       
  62 H62           -2.2329    -4.1832    -4.9963 H       
  63 H63           -1.8259    -2.5591    -4.3907 H       
  64 H64           -0.7899    -4.2102    -2.9263 H       
  65 H65           -2.3478    -5.0517    -2.7137 H       
  66 H66           -3.0608    -3.8594    -6.5298 H       
  67 H67           -4.5550    -4.7008    -6.0514 H       
  68 H68           -4.6051    -4.0306    -8.4504 H       
  69 H69           -5.8776    -3.2114    -7.5126 H       
  70 H70           -4.0709    -0.0299    -7.3438 H       
  71 H71           -5.5651    -0.8713    -6.8654 H       
  72 H72           -4.0208    -0.7001    -4.9448 H       
  73 H73           -2.7483    -1.5193    -5.8825 H       
  74 H74           -5.9056    -1.4772    -9.2686 H       
  75 H75           -4.4035    -0.5936    -9.6308 H       
  76 H76           -4.5766    -2.2948   -10.1250 H       
  77 H77            3.0833    -1.9798    -1.8140 H       
  78 H78            4.4056    -5.0630     1.7995 H       
  79 H79            3.2649    -7.5836     3.0082 H       
  80 H80            2.6965    -9.8502     2.2360 H       
  81 H81           -1.2299    -8.5305     1.2230 H       
  82 H82           -2.0220    -6.7595     0.4319 H       
  83 H83           -2.5846    -7.1758     2.0686 H       
  84 H84           -3.1514    -4.7969     2.4787 H       
  85 H85           -2.5888    -4.3807     0.8421 H       
  86 H86           -4.0158    -5.4232     1.0543 H       
  87 H87            0.4411     0.6248    -3.1355 H       
  88 H88            2.1244     0.9554    -2.6609 H       
  89 H89            2.0583     0.2572    -5.0132 H       
@<TRIPOS>BOND
   1    1   31 1
   2    2    3 ar
   3    2    7 ar
   4    3    4 ar
   5    3   48 1
   6    4    5 ar
   7    4    8 1
   8    5    6 ar
   9    5   53 1
  10    6    7 ar
  11    6   54 1
  12    7   55 1
  13    8    9 1
  14    8   10 1
  15    8   28 1
  16    9   26 2
  17    9   27 am
  18   10   11 1
  19   10   56 1
  20   10   57 1
  21   11   12 am
  22   11   13 2
  23   12   14 1
  24   12   18 1
  25   14   15 1
  26   14   58 1
  27   14   59 1
  28   15   16 1
  29   15   60 1
  30   15   61 1
  31   16   17 1
  32   16   19 1
  33   17   18 1
  34   17   62 1
  35   17   63 1
  36   18   64 1
  37   18   65 1
  38   19   20 1
  39   19   24 1
  40   20   21 1
  41   20   66 1
  42   20   67 1
  43   21   22 1
  44   21   68 1
  45   21   69 1
  46   22   23 1
  47   22   25 1
  48   23   24 1
  49   23   70 1
  50   23   71 1
  51   24   72 1
  52   24   73 1
  53   25   74 1
  54   25   75 1
  55   25   76 1
  56   27   45 am
  57   27   29 1
  58   28   29 ar
  59   28   30 ar
  60   29   33 ar
  61   30   31 ar
  62   30   77 1
  63   31   32 ar
  64   32   33 ar
  65   32   34 1
  66   33   78 1
  67   35   36 ar
  68   35   37 ar
  69   35   45 1
  70   36   42 1
  71   36   40 ar
  72   37   38 ar
  73   37   79 1
  74   38   39 ar
  75   38   80 1
  76   39   40 ar
  77   39   41 1
  78   40   81 1
  79   42   43 1
  80   43   44 1
  81   43   82 1
  82   43   83 1
  83   44   84 1
  84   44   85 1
  85   44   86 1
  86   45   46 2
  87   45   47 2
  88   48   49 1
  89   49   50 1
  90   49   87 1
  91   49   88 1
  92   50   51 1
  93   50   52 1
  94   50   89 1

#	End of record

