#	Name: ASD02039472
#	Creating user name:	WinNT
#	Creation time:	15. 06. 2019 20:18

#	Modifying user name:	WinNT
#	Modification time:	15. 06. 2019 20:18

#	Program:	/corina/corina34_cracker 3.40 0067  02.08.2006

@<TRIPOS>MOLECULE
ASD02039472
  52   55    0    0    0
SMALL
NO_CHARGES


@<TRIPOS>ATOM
   1 C1             0.1499     1.1861     0.0762 C.ar    
   2 C2             0.4317    -0.1673     0.1948 C.ar    
   3 C3             1.2614     2.2019     0.0151 C.3     
   4 N4             1.7337     2.3265    -1.3661 N.am    
   5 C5             1.2464     3.3008    -2.1596 C.2     
   6 C6             0.1673     4.1773    -1.6719 C.2     
   7 C7            -0.4872     5.1301    -2.3964 C.2     
   8 N8            -0.3609     4.1799    -0.4213 N.2     
   9 C9            -1.2923     5.0872    -0.3596 C.2     
  10 N10           -1.3969     5.6966    -1.5692 N.pl3   
  11 O11            1.6974     3.4565    -3.2784 O.2     
  12 C12           -2.3268     6.7742    -1.9161 C.3     
  13 C13            2.7358     1.3921    -1.8847 C.3     
  14 C14           -0.6103    -1.0748     0.2484 C.ar    
  15 C15           -2.1744     0.6130     0.0634 C.ar    
  16 C16           -1.1749     1.5820     0.0095 C.ar    
  17 C17           -3.5987     1.0207    -0.0073 C.ar    
  18 C18           -4.6041     0.0577     0.0460 C.ar    
  19 C19           -5.9318     0.4436    -0.0205 C.ar    
  20 C20           -6.2593     1.7892    -0.1401 C.ar    
  21 C21           -5.2601     2.7460    -0.1935 C.ar    
  22 C22           -3.9345     2.3688    -0.1215 C.ar    
  23 N23           -1.8629    -0.6708     0.1880 N.ar    
  24 O24           -6.9156    -0.4935     0.0308 O.3     
  25 C25            2.3153     0.7013    -3.1927 C.3     
  26 C26            3.7687     0.8801    -3.6623 C.3     
  27 C27            3.8517     2.0726    -2.6949 C.3     
  28 F28           -7.5556     2.1642    -0.2048 F       
  29 C29           -6.5067    -1.8573     0.1536 C.3     
  30 F30           -5.7118    -2.2063    -0.9434 F       
  31 F31           -5.7713    -2.0193     1.3327 F       
  32 H32            1.4551    -0.5088     0.2444 H       
  33 H33            0.8911     3.1670     0.3609 H       
  34 H34            2.0843     1.8789     0.6527 H       
  35 H35           -0.3127     5.3842    -3.4315 H       
  36 H36           -1.8880     5.3163     0.5116 H       
  37 H37           -1.8594     7.7374    -1.7114 H       
  38 H38           -2.5786     6.7102    -2.9747 H       
  39 H39           -3.2343     6.6769    -1.3203 H       
  40 H40            3.1042     0.7022    -1.1255 H       
  41 H41           -0.3945    -2.1289     0.3406 H       
  42 H42           -1.4298     2.6266    -0.0915 H       
  43 H43           -4.3482    -0.9875     0.1386 H       
  44 H44           -5.5187     3.7903    -0.2872 H       
  45 H45           -3.1571     3.1173    -0.1631 H       
  46 H46            2.0237    -0.3408    -3.0620 H       
  47 H47            1.5943     1.2736    -3.7765 H       
  48 H48            4.4208     0.0504    -3.3896 H       
  49 H49            3.8570     1.1620    -4.7115 H       
  50 H50            3.5508     3.0198    -3.1426 H       
  51 H51            4.8005     2.1375    -2.1623 H       
  52 H52           -7.3871    -2.4993     0.1833 H       
@<TRIPOS>BOND
   1    1    2 ar
   2    1    3 1
   3    1   16 ar
   4    2   14 ar
   5    2   32 1
   6    3    4 1
   7    3   33 1
   8    3   34 1
   9    4    5 am
  10    4   13 1
  11    5    6 1
  12    5   11 2
  13    6    7 2
  14    6    8 1
  15    7   10 1
  16    7   35 1
  17    8    9 2
  18    9   10 1
  19    9   36 1
  20   10   12 1
  21   12   37 1
  22   12   38 1
  23   12   39 1
  24   13   25 1
  25   13   27 1
  26   13   40 1
  27   14   23 ar
  28   14   41 1
  29   15   16 ar
  30   15   17 1
  31   15   23 ar
  32   16   42 1
  33   17   18 ar
  34   17   22 ar
  35   18   19 ar
  36   18   43 1
  37   19   20 ar
  38   19   24 1
  39   20   21 ar
  40   20   28 1
  41   21   22 ar
  42   21   44 1
  43   22   45 1
  44   24   29 1
  45   25   26 1
  46   25   46 1
  47   25   47 1
  48   26   27 1
  49   26   48 1
  50   26   49 1
  51   27   50 1
  52   27   51 1
  53   29   30 1
  54   29   31 1
  55   29   52 1

#	End of record

