#	Name: ASD01871018
#	Creating user name:	WinNT
#	Creation time:	15. 06. 2019 19:39

#	Modifying user name:	WinNT
#	Modification time:	15. 06. 2019 19:39

#	Program:	/corina/corina34_cracker 3.40 0067  02.08.2006

@<TRIPOS>MOLECULE
ASD01871018
  26   28    0    0    0
SMALL
NO_CHARGES


@<TRIPOS>ATOM
   1 C1            -0.0162     1.3404     0.0094 C.2     
   2 C2             0.0021    -0.0041     0.0020 C.2     
   3 S3            -1.6654    -0.5718     0.0149 S.3     
   4 C4            -2.2297     1.0414     0.0289 C.2     
   5 N5            -1.2338     1.8675     0.0295 N.2     
   6 O6            -3.5353     1.4040     0.0433 O.3     
   7 C7            -4.4717     0.4178     0.0475 C.ar    
   8 C8            -4.9393    -0.0927     1.2513 C.ar    
   9 C9            -4.9667    -0.0769    -1.1519 C.ar    
  10 C10           -5.9193    -1.0803    -1.1442 C.ar    
  11 C11           -6.3789    -1.5901     0.0560 C.ar    
  12 C12           -5.8920    -1.0961     1.2520 C.ar    
  13 C13            1.2200     2.1644     0.0020 C.2     
  14 C14            2.5387     1.6846    -0.1126 C.2     
  15 N15            3.3488     2.7098    -0.0798 N.2     
  16 N16            2.5853     3.8756     0.0560 N.pl3   
  17 C17            1.2829     3.5232     0.0992 C.2     
  18 F18           -4.5188     0.4213    -2.3251 F       
  19 F19           -4.4640     0.3894     2.4204 F       
  20 H20            0.8844    -0.6267    -0.0101 H       
  21 H21           -6.3046    -1.4655    -2.0767 H       
  22 H22           -7.1230    -2.3728     0.0593 H       
  23 H23           -6.2530    -1.4965     2.1879 H       
  24 H24            2.8302     0.6493    -0.2107 H       
  25 H25            2.9320     4.7801     0.1065 H       
  26 H26            0.4433     4.1951     0.1991 H       
@<TRIPOS>BOND
   1    1    2 2
   2    1   13 1
   3    1    5 1
   4    2    3 1
   5    2   20 1
   6    3    4 1
   7    4    5 2
   8    4    6 1
   9    6    7 1
  10    7    8 ar
  11    7    9 ar
  12    8   19 1
  13    8   12 ar
  14    9   10 ar
  15    9   18 1
  16   10   11 ar
  17   10   21 1
  18   11   12 ar
  19   11   22 1
  20   12   23 1
  21   13   14 1
  22   13   17 2
  23   14   15 2
  24   14   24 1
  25   15   16 1
  26   16   17 1
  27   16   25 1
  28   17   26 1

#	End of record

