#	Name: ASD03430752
#	Creating user name:	WinNT
#	Creation time:	15. 06. 2019 20:41

#	Modifying user name:	WinNT
#	Modification time:	15. 06. 2019 20:41

#	Program:	/corina/corina34_cracker 3.40 0067  02.08.2006

@<TRIPOS>MOLECULE
ASD03430752
  34   38    0    0    0
SMALL
NO_CHARGES


@<TRIPOS>ATOM
   1 C1            -0.0166     1.3732     0.0096 C.ar    
   2 C2             0.0021    -0.0041     0.0020 C.ar    
   3 C3             1.2043    -0.6795    -0.0057 C.ar    
   4 C4             2.4066     0.0229     0.0050 C.ar    
   5 C5             2.3792     1.4123     0.0040 C.ar    
   6 C6             1.1698     2.0971     0.0022 C.ar    
   7 O7             3.4725    -0.8272     0.0275 O.3     
   8 C8             1.5598    -2.1411    -0.0392 C.3     
   9 C9             3.0492    -2.1323    -0.4110 C.3     
  10 C10            0.4342    -3.8636     1.0032 C.ar    
  11 C11            1.3157    -2.8208     1.2754 C.ar    
  12 C12            0.7397    -2.9035    -1.0402 C.2     
  13 N13            0.1163    -3.8848    -0.3582 N.am    
  14 O14            0.6548    -2.6797    -2.2292 O.2     
  15 C15            1.7704    -2.6039     2.5571 C.ar    
  16 C16            1.3518    -3.4264     3.5903 C.ar    
  17 C17            0.4743    -4.4657     3.3298 C.ar    
  18 C18            0.0175    -4.6857     2.0471 C.ar    
  19 O19            0.9268     3.4371    -0.0168 O.3     
  20 C20           -1.1518     2.3779     0.0350 C.3     
  21 C21           -0.4174     3.6805     0.4315 C.3     
  22 F22            1.7983    -3.2155     4.8478 F       
  23 H23           -0.9263    -0.5559     0.0025 H       
  24 H24            3.3068     1.9654     0.0049 H       
  25 H25            3.1800    -2.2402    -1.4877 H       
  26 H26            3.5867    -2.9141     0.1256 H       
  27 H27           -0.4832    -4.5301    -0.7644 H       
  28 H28            2.4542    -1.7922     2.7569 H       
  29 H29            0.1465    -5.1071     4.1345 H       
  30 H30           -0.6666    -5.4983     1.8516 H       
  31 H31           -1.6098     2.4732    -0.9495 H       
  32 H32           -1.8954     2.1065     0.7843 H       
  33 H33           -0.4440     3.8254     1.5115 H       
  34 H34           -0.8473     4.5387    -0.0851 H       
@<TRIPOS>BOND
   1    1    2 ar
   2    1    6 ar
   3    1   20 1
   4    2    3 ar
   5    2   23 1
   6    3    4 ar
   7    3    8 1
   8    4    5 ar
   9    4    7 1
  10    5    6 ar
  11    5   24 1
  12    6   19 1
  13    7    9 1
  14    8    9 1
  15    8   11 1
  16    8   12 1
  17    9   25 1
  18    9   26 1
  19   10   11 ar
  20   10   13 1
  21   10   18 ar
  22   11   15 ar
  23   12   13 am
  24   12   14 2
  25   13   27 1
  26   15   16 ar
  27   15   28 1
  28   16   17 ar
  29   16   22 1
  30   17   18 ar
  31   17   29 1
  32   18   30 1
  33   19   21 1
  34   20   21 1
  35   20   31 1
  36   20   32 1
  37   21   33 1
  38   21   34 1

#	End of record

