#	Name: ASD00844936
#	Creating user name:	WinNT
#	Creation time:	15. 06. 2019 18:51

#	Modifying user name:	WinNT
#	Modification time:	15. 06. 2019 18:51

#	Program:	/corina/corina34_cracker 3.40 0067  02.08.2006

@<TRIPOS>MOLECULE
ASD00844936
  95  100    0    0    0
SMALL
NO_CHARGES


@<TRIPOS>ATOM
   1 F1             5.6883    -2.1826    -1.9692 F       
   2 C2             0.7293     1.2402    -0.3865 C.ar    
   3 C3             0.9753    -0.0983    -0.6548 C.ar    
   4 C4             0.8536    -1.0400     0.3569 C.ar    
   5 C5             0.4880    -0.6427     1.6283 C.ar    
   6 C6             0.2429     0.6922     1.8931 C.ar    
   7 C7             0.3639     1.6325     0.8869 C.ar    
   8 C8             1.1196    -2.4951     0.0688 C.3     
   9 C9             0.7940    -3.3436     1.2795 C.2     
  10 C10            0.3085    -2.9570    -1.1434 C.3     
  11 C11           -1.1520    -2.6676    -0.9104 C.2     
  12 N12           -2.0727    -3.0878    -1.8005 N.am    
  13 O13           -1.4989    -2.0565     0.0781 O.2     
  14 C14           -3.4889    -2.7193    -1.6528 C.3     
  15 C15           -3.9811    -2.1353    -2.9813 C.3     
  16 N16           -3.6961    -3.0848    -4.0654 N.3     
  17 C17           -2.2509    -3.2955    -4.2230 C.3     
  18 C18           -1.6868    -3.9220    -2.9488 C.3     
  19 C19           -4.3042    -2.6413    -5.3269 C.3     
  20 C20           -3.8841    -3.5851    -6.4570 C.3     
  21 C21           -4.5688    -3.1542    -7.7561 C.3     
  22 N22           -6.0260    -3.1922    -7.5787 N.3     
  23 C23           -6.4579    -2.2586    -6.5307 C.3     
  24 C24           -5.8295    -2.6628    -5.1951 C.3     
  25 C25           -6.7178    -2.9183    -8.8454 C.3     
  26 O26           -0.2909    -3.4548     1.8104 O.2     
  27 N27            1.9323    -3.9507     1.6551 N.am    
  28 C28            2.5956    -2.7287    -0.1580 C.ar    
  29 C29            3.0084    -3.6112     0.8324 C.ar    
  30 C30            3.4856    -2.2502    -1.0933 C.ar    
  31 C31            4.8118    -2.6493    -1.0531 C.ar    
  32 C32            5.2360    -3.5298    -0.0695 C.ar    
  33 C33            4.3427    -4.0097     0.8689 C.ar    
  34 F34            6.5287    -3.9202    -0.0285 F       
  35 C35            1.7219    -6.6067     2.3448 C.ar    
  36 C36            0.4674    -6.9228     1.8434 C.ar    
  37 C37            2.7191    -7.5632     2.3682 C.ar    
  38 C38            2.4699    -8.8360     1.8922 C.ar    
  39 C39            1.2166    -9.1572     1.3896 C.ar    
  40 C40            0.2146    -8.1997     1.3655 C.ar    
  41 O41            0.9719   -10.4095     0.9220 O.3     
  42 O42           -0.5129    -5.9819     1.8210 O.3     
  43 C43           -1.7797    -6.3773     1.2910 C.3     
  44 C44            2.0505   -11.3452     0.9780 C.3     
  45 C45           -8.2112    -3.2091    -8.6841 C.3     
  46 S46            2.0461    -4.9823     2.9455 S.o2    
  47 O47            3.4079    -4.9688     3.3511 O.2     
  48 O48            0.9723    -4.6550     3.8168 O.2     
  49 O49            1.3344    -0.4867    -1.9066 O.3     
  50 C50            1.3617     0.5238    -2.9166 C.3     
  51 C51            1.8699    -0.0792    -4.2278 C.3     
  52 F52            3.1231    -0.6642    -4.0172 F       
  53 F53            0.9695    -1.0530    -4.6730 F       
  54 H54            0.8276     1.9757    -1.1712 H       
  55 H55            0.3932    -1.3753     2.4161 H       
  56 H56           -0.0435     1.0008     2.8877 H       
  57 H57            0.1719     2.6745     1.0963 H       
  58 H58            0.6473    -2.4241    -2.0318 H       
  59 H59            0.4481    -4.0285    -1.2871 H       
  60 H60           -4.0734    -3.6047    -1.4030 H       
  61 H61           -3.5929    -1.9740    -0.8642 H       
  62 H62           -5.0552    -1.9588    -2.9253 H       
  63 H63           -3.4672    -1.1943    -3.1775 H       
  64 H64           -2.0703    -3.9604    -5.0676 H       
  65 H65           -1.7612    -2.3383    -4.4020 H       
  66 H66           -0.6002    -3.9744    -3.0166 H       
  67 H67           -2.0973    -4.9235    -2.8205 H       
  68 H68           -3.9716    -1.6287    -5.5554 H       
  69 H69           -2.8024    -3.5419    -6.5841 H       
  70 H70           -4.1815    -4.6042    -6.2096 H       
  71 H71           -4.2601    -2.1402    -8.0102 H       
  72 H72           -4.2829    -3.8328    -8.5597 H       
  73 H73           -6.1404    -1.2487    -6.7906 H       
  74 H74           -7.5441    -2.2867    -6.4444 H       
  75 H75           -6.1576    -3.6673    -4.9278 H       
  76 H76           -6.1378    -1.9605    -4.4206 H       
  77 H77           -6.5786    -1.8718    -9.1165 H       
  78 H78           -6.3064    -3.5545    -9.6290 H       
  79 H79            3.1501    -1.5649    -1.8576 H       
  80 H80            4.6796    -4.6950     1.6326 H       
  81 H81            3.6949    -7.3153     2.7588 H       
  82 H82            3.2510    -9.5816     1.9109 H       
  83 H83           -0.7613    -8.4477     0.9752 H       
  84 H84           -1.6568    -6.6969     0.2562 H       
  85 H85           -2.1789    -7.2023     1.8810 H       
  86 H86           -2.4696    -5.5344     1.3315 H       
  87 H87            2.8873   -10.9707     0.3885 H       
  88 H88            2.3650   -11.4755     2.0135 H       
  89 H89            1.7218   -12.3031     0.5749 H       
  90 H90           -8.3504    -4.2556    -8.4129 H       
  91 H91           -8.6227    -2.5729    -7.9004 H       
  92 H92           -8.7245    -3.0059    -9.6239 H       
  93 H93            0.3561     0.9179    -3.0636 H       
  94 H94            2.0261     1.3301    -2.6060 H       
  95 H95            1.9569     0.7057    -4.9790 H       
@<TRIPOS>BOND
   1    1   31 1
   2    2    3 ar
   3    2    7 ar
   4    2   54 1
   5    3    4 ar
   6    3   49 1
   7    4    5 ar
   8    4    8 1
   9    5    6 ar
  10    5   55 1
  11    6    7 ar
  12    6   56 1
  13    7   57 1
  14    8    9 1
  15    8   10 1
  16    8   28 1
  17    9   26 2
  18    9   27 am
  19   10   11 1
  20   10   58 1
  21   10   59 1
  22   11   12 am
  23   11   13 2
  24   12   14 1
  25   12   18 1
  26   14   15 1
  27   14   60 1
  28   14   61 1
  29   15   16 1
  30   15   62 1
  31   15   63 1
  32   16   17 1
  33   16   19 1
  34   17   18 1
  35   17   64 1
  36   17   65 1
  37   18   66 1
  38   18   67 1
  39   19   20 1
  40   19   24 1
  41   19   68 1
  42   20   21 1
  43   20   69 1
  44   20   70 1
  45   21   22 1
  46   21   71 1
  47   21   72 1
  48   22   23 1
  49   22   25 1
  50   23   24 1
  51   23   73 1
  52   23   74 1
  53   24   75 1
  54   24   76 1
  55   25   45 1
  56   25   77 1
  57   25   78 1
  58   27   46 am
  59   27   29 1
  60   28   29 ar
  61   28   30 ar
  62   29   33 ar
  63   30   31 ar
  64   30   79 1
  65   31   32 ar
  66   32   33 ar
  67   32   34 1
  68   33   80 1
  69   35   36 ar
  70   35   37 ar
  71   35   46 1
  72   36   42 1
  73   36   40 ar
  74   37   38 ar
  75   37   81 1
  76   38   39 ar
  77   38   82 1
  78   39   40 ar
  79   39   41 1
  80   40   83 1
  81   41   44 1
  82   42   43 1
  83   43   84 1
  84   43   85 1
  85   43   86 1
  86   44   87 1
  87   44   88 1
  88   44   89 1
  89   45   90 1
  90   45   91 1
  91   45   92 1
  92   46   47 2
  93   46   48 2
  94   49   50 1
  95   50   51 1
  96   50   93 1
  97   50   94 1
  98   51   52 1
  99   51   53 1
 100   51   95 1

#	End of record

