#	Name: ASD01470033
#	Creating user name:	WinNT
#	Creation time:	15. 06. 2019 19:21

#	Modifying user name:	WinNT
#	Modification time:	15. 06. 2019 19:21

#	Program:	/corina/corina34_cracker 3.40 0067  02.08.2006

@<TRIPOS>MOLECULE
ASD01470033
  83   89    0    0    0
SMALL
NO_CHARGES


@<TRIPOS>ATOM
   1 N1            -0.8280     1.2754     0.9939 N.am    
   2 C2             0.5155     0.7266     0.8308 C.3     
   3 C3             0.8659    -0.2089     1.9965 C.3     
   4 C4             0.3648    -1.6249     1.7582 C.3     
   5 C5            -0.9079    -1.6334     0.9276 C.3     
   6 N6            -1.9249    -0.7668     1.5246 N.am    
   7 C7            -1.8794     0.5688     1.3769 C.2     
   8 O8            -2.9026     1.1835     1.6078 O.2     
   9 C9            -3.0118    -1.3653     2.3035 C.3     
  10 C10           -1.0232     2.7015     0.7216 C.3     
  11 C11           -0.8909     3.4807     2.0047 C.ar    
  12 C12           -2.6432    -1.3624     3.7648 C.ar    
  13 C13           -2.8364    -0.2346     4.5083 C.ar    
  14 C14           -2.4942    -0.2333     5.8653 C.ar    
  15 C15           -1.9543    -1.3956     6.4488 C.ar    
  16 C16           -1.7689    -2.5318     5.6648 C.ar    
  17 C17           -2.1152    -2.5102     4.3436 C.ar    
  18 C18            0.3602     3.8606     2.4545 C.ar    
  19 C19            0.4886     4.5757     3.6302 C.ar    
  20 C20           -0.6399     4.9143     4.3627 C.ar    
  21 C21           -1.9018     4.5308     3.9087 C.ar    
  22 C22           -2.0212     3.8183     2.7255 C.ar    
  23 C23           -2.5631     0.7648     6.9276 C.2     
  24 N24           -2.1036     0.2186     8.0170 N.2     
  25 N25           -1.7203    -1.1031     7.7670 N.pl3   
  26 C26            0.5843    -0.0563    -0.4819 C.3     
  27 O27            2.2856    -0.2396     2.1565 O.3     
  28 C28            1.6015     0.5801    -1.3936 C.ar    
  29 C29            2.9375     0.2438    -1.2803 C.ar    
  30 C30            3.8706     0.8276    -2.1166 C.ar    
  31 C31            3.4676     1.7474    -3.0666 C.ar    
  32 C32            2.1314     2.0831    -3.1805 C.ar    
  33 C33            1.1978     1.4960    -2.3471 C.ar    
  34 C34           -1.4478    -3.0627     0.8474 C.3     
  35 O35            0.1041    -2.2463     3.0184 O.3     
  36 C36           -0.4517    -3.9364     0.1294 C.ar    
  37 C37            0.4554    -4.6885     0.8522 C.ar    
  38 C38            1.3691    -5.4899     0.1936 C.ar    
  39 C39            1.3754    -5.5395    -1.1879 C.ar    
  40 C40            0.4678    -4.7881    -1.9107 C.ar    
  41 C41           -0.4488    -3.9901    -1.2519 C.ar    
  42 N42           -3.0476     4.8696     4.6449 N.pl3   
  43 C43           -4.2038     5.3750     4.1355 C.2     
  44 C44           -5.0324     5.5517     5.1916 C.2     
  45 N45           -4.3576     5.1539     6.2757 N.2     
  46 N46           -3.1895     4.7510     5.9188 N.2     
  47 N47           -0.5128     5.6369     5.5522 N.pl3   
  48 H48            1.2357     1.5441     0.7975 H       
  49 H49            0.4132     0.1780     2.9095 H       
  50 H50            1.1350    -2.1921     1.2356 H       
  51 H51           -0.6820    -1.2810    -0.0789 H       
  52 H52           -3.9242    -0.7871     2.1579 H       
  53 H53           -3.1745    -2.3907     1.9719 H       
  54 H54           -0.2706     3.0420     0.0105 H       
  55 H55           -2.0169     2.8586     0.3020 H       
  56 H56           -3.2508     0.6522     4.0520 H       
  57 H57           -1.3553    -3.4289     6.1012 H       
  58 H58           -1.9699    -3.3937     3.7397 H       
  59 H59            1.2396     3.5975     1.8855 H       
  60 H60            1.4674     4.8706     3.9788 H       
  61 H61           -2.9968     3.5201     2.3709 H       
  62 H62           -2.9297     1.7758     6.8283 H       
  63 H63           -1.3487    -1.7148     8.4217 H       
  64 H64            0.8752    -1.0864    -0.2758 H       
  65 H65           -0.3934    -0.0443    -0.9637 H       
  66 H66            2.5881    -0.8108     2.8758 H       
  67 H67            3.2523    -0.4748    -0.5381 H       
  68 H68            4.9144     0.5654    -2.0276 H       
  69 H69            4.1966     2.2041    -3.7195 H       
  70 H70            1.8166     2.8020    -3.9225 H       
  71 H71            0.1539     1.7582    -2.4361 H       
  72 H72           -1.6088    -3.4473     1.8545 H       
  73 H73           -2.3918    -3.0645     0.3025 H       
  74 H74            0.8782    -2.3069     3.5947 H       
  75 H75            0.4504    -4.6497     1.9315 H       
  76 H76            2.0782    -6.0769     0.7583 H       
  77 H77            2.0898    -6.1651    -1.7025 H       
  78 H78            0.4730    -4.8266    -2.9900 H       
  79 H79           -1.1579    -3.4030    -1.8166 H       
  80 H80           -4.4171     5.5914     3.0991 H       
  81 H81           -6.0406     5.9380     5.1640 H       
  82 H82            0.3576     5.9611     5.8320 H       
  83 H83           -1.2948     5.8143     6.0979 H       
@<TRIPOS>BOND
   1    1    2 1
   2    1   10 1
   3    1    7 am
   4    2    3 1
   5    2   26 1
   6    2   48 1
   7    3    4 1
   8    3   27 1
   9    3   49 1
  10    4    5 1
  11    4   35 1
  12    4   50 1
  13    5    6 1
  14    5   34 1
  15    5   51 1
  16    6    7 am
  17    6    9 1
  18    7    8 2
  19    9   12 1
  20    9   52 1
  21    9   53 1
  22   10   11 1
  23   10   54 1
  24   10   55 1
  25   11   18 ar
  26   11   22 ar
  27   12   13 ar
  28   12   17 ar
  29   13   14 ar
  30   13   56 1
  31   14   15 ar
  32   14   23 1
  33   15   16 ar
  34   15   25 1
  35   16   17 ar
  36   16   57 1
  37   17   58 1
  38   18   19 ar
  39   18   59 1
  40   19   20 ar
  41   19   60 1
  42   20   21 ar
  43   20   47 1
  44   21   22 ar
  45   21   42 1
  46   22   61 1
  47   23   24 2
  48   23   62 1
  49   24   25 1
  50   25   63 1
  51   26   28 1
  52   26   64 1
  53   26   65 1
  54   27   66 1
  55   28   29 ar
  56   28   33 ar
  57   29   30 ar
  58   29   67 1
  59   30   31 ar
  60   30   68 1
  61   31   32 ar
  62   31   69 1
  63   32   33 ar
  64   32   70 1
  65   33   71 1
  66   34   36 1
  67   34   72 1
  68   34   73 1
  69   35   74 1
  70   36   37 ar
  71   36   41 ar
  72   37   38 ar
  73   37   75 1
  74   38   39 ar
  75   38   76 1
  76   39   40 ar
  77   39   77 1
  78   40   41 ar
  79   40   78 1
  80   41   79 1
  81   42   43 1
  82   42   46 1
  83   43   44 2
  84   43   80 1
  85   44   45 1
  86   44   81 1
  87   45   46 2
  88   47   82 1
  89   47   83 1

#	End of record

