#	Name: ASD01410945
#	Creating user name:	WinNT
#	Creation time:	15. 06. 2019 19:19

#	Modifying user name:	WinNT
#	Modification time:	15. 06. 2019 19:19

#	Program:	/corina/corina34_cracker 3.40 0067  02.08.2006

@<TRIPOS>MOLECULE
ASD01410945
  71   74    0    0    0
SMALL
NO_CHARGES


@<TRIPOS>ATOM
   1 C1            -0.7097     1.8168     0.6710 C.ar    
   2 C2            -0.3830     0.4681     0.7463 C.ar    
   3 C3            -1.2707    -0.4912     0.2979 C.ar    
   4 C4            -2.4984    -0.1115    -0.2321 C.ar    
   5 C5            -2.8324     1.2485    -0.3101 C.ar    
   6 C6            -1.9295     2.2099     0.1515 C.ar    
   7 O7             0.1708     2.7529     1.1149 O.3     
   8 C8             1.3044     2.9523     0.3967 C.ar    
   9 N9            -3.3948    -1.0796    -0.6854 N.am    
  10 C10           -4.3456    -1.5575     0.1417 C.2     
  11 C11           -5.2472    -2.6761    -0.3131 C.3     
  12 O12           -4.4757    -1.0872     1.2521 O.2     
  13 C13           -5.8971    -3.3348     0.9053 C.3     
  14 C14           -6.3353    -2.1134    -1.2298 C.3     
  15 C15           -7.2506    -3.2491    -1.6916 C.3     
  16 C16           -7.9006    -3.9079    -0.4732 C.3     
  17 C17           -6.8124    -4.4705     0.4435 C.3     
  18 O18           -8.7554    -4.9686    -0.9045 O.3     
  19 N19            1.4701     2.3218    -0.7546 N.ar    
  20 C20           -3.3026    -1.5768    -2.0603 C.3     
  21 C21           -3.3340    -0.3961    -3.0328 C.3     
  22 O22           -1.9751    -3.4661    -1.3468 O.3     
  23 C23           -1.9932    -2.3483    -2.2369 C.3     
  24 C24           -0.7886    -4.2579    -1.4321 C.3     
  25 C25            2.2775     3.8207     0.8743 C.ar    
  26 C26            3.4292     4.0157     0.1317 C.ar    
  27 C27            3.5671     3.3315    -1.0680 C.ar    
  28 C28            2.5566     2.4873    -1.4843 C.ar    
  29 C29            4.8037     3.5123    -1.9100 C.3     
  30 N30            5.8113     2.5243    -1.5163 N.pl3   
  31 N31            5.9270     1.3528    -2.0338 N.2     
  32 C32            6.9275     0.7316    -1.4515 C.2     
  33 C33            7.4380     1.6276    -0.5094 C.2     
  34 N34            6.7040     2.7126    -0.6100 N.2     
  35 F35           -0.9448    -1.8000     0.3745 F       
  36 C36            2.0817     4.5415     2.1832 C.3     
  37 F37            3.1937     5.3504     2.4409 F       
  38 F38            0.9332     5.3370     2.1102 F       
  39 F39            1.9365     3.6063     3.2134 F       
  40 C40           -4.1317     1.6612    -0.8705 C.2     
  41 O41           -4.9600     0.8225    -1.1655 O.2     
  42 O42           -4.4009     2.9685    -1.0557 O.3     
  43 H43            0.5698     0.1683     1.1570 H       
  44 H44           -2.1804     3.2589     0.0948 H       
  45 H45           -4.6610    -3.4168    -0.8571 H       
  46 H46           -5.1219    -3.7357     1.5583 H       
  47 H47           -6.4833    -2.5941     1.4493 H       
  48 H48           -6.9215    -1.3728    -0.6858 H       
  49 H49           -5.8723    -1.6442    -2.0978 H       
  50 H50           -8.0258    -2.8483    -2.3447 H       
  51 H51           -6.6645    -3.9898    -2.2356 H       
  52 H52           -8.4867    -3.1672     0.0708 H       
  53 H53           -6.2263    -5.2112    -0.1005 H       
  54 H54           -7.2754    -4.9398     1.3115 H       
  55 H55           -9.2019    -5.4321    -0.1828 H       
  56 H56           -4.1445    -2.2383    -2.2647 H       
  57 H57           -2.4505     0.2238    -2.8804 H       
  58 H58           -3.3439    -0.7691    -4.0570 H       
  59 H59           -4.2301     0.1982    -2.8539 H       
  60 H60           -1.9155    -2.7015    -3.2652 H       
  61 H61           -1.1520    -1.6922    -2.0135 H       
  62 H62           -0.8526    -5.0855    -0.7257 H       
  63 H63           -0.6859    -4.6506    -2.4437 H       
  64 H64            0.0776    -3.6414    -1.1919 H       
  65 H65            4.2028     4.6851     0.4777 H       
  66 H66            2.6591     1.9523    -2.4169 H       
  67 H67            4.5509     3.3743    -2.9613 H       
  68 H68            5.2014     4.5161    -1.7607 H       
  69 H69            7.2824    -0.2673    -1.6585 H       
  70 H70            8.2686     1.4637     0.1611 H       
  71 H71           -5.2663     3.1904    -1.4259 H       
@<TRIPOS>BOND
   1    1    2 ar
   2    1    7 1
   3    1    6 ar
   4    2    3 ar
   5    2   43 1
   6    3    4 ar
   7    3   35 1
   8    4    5 ar
   9    4    9 1
  10    5    6 ar
  11    5   40 1
  12    6   44 1
  13    7    8 1
  14    8   25 ar
  15    8   19 ar
  16    9   10 am
  17    9   20 1
  18   10   11 1
  19   10   12 2
  20   11   13 1
  21   11   14 1
  22   11   45 1
  23   13   17 1
  24   13   46 1
  25   13   47 1
  26   14   15 1
  27   14   48 1
  28   14   49 1
  29   15   16 1
  30   15   50 1
  31   15   51 1
  32   16   17 1
  33   16   18 1
  34   16   52 1
  35   17   53 1
  36   17   54 1
  37   18   55 1
  38   19   28 ar
  39   20   21 1
  40   20   23 1
  41   20   56 1
  42   21   57 1
  43   21   58 1
  44   21   59 1
  45   22   23 1
  46   22   24 1
  47   23   60 1
  48   23   61 1
  49   24   62 1
  50   24   63 1
  51   24   64 1
  52   25   26 ar
  53   25   36 1
  54   26   27 ar
  55   26   65 1
  56   27   28 ar
  57   27   29 1
  58   28   66 1
  59   29   30 1
  60   29   67 1
  61   29   68 1
  62   30   31 1
  63   30   34 1
  64   31   32 2
  65   32   33 1
  66   32   69 1
  67   33   34 2
  68   33   70 1
  69   36   37 1
  70   36   38 1
  71   36   39 1
  72   40   41 2
  73   40   42 1
  74   42   71 1

#	End of record

