#	Name: ASD07300307
#	Creating user name:	WinNT
#	Creation time:	15. 06. 2019 21:09

#	Modifying user name:	WinNT
#	Modification time:	15. 06. 2019 21:09

#	Program:	/corina/corina34_cracker 3.40 0067  02.08.2006

@<TRIPOS>MOLECULE
ASD07300307
  31   33    0    0    0
SMALL
NO_CHARGES


@<TRIPOS>ATOM
   1 N1             0.1018     1.3252     0.8575 N.pl3   
   2 C2             0.0911    -0.0560     0.6357 C.ar    
   3 C3             0.0136    -0.9318     1.7107 C.ar    
   4 C4             0.0027    -2.2951     1.4908 C.ar    
   5 C5             0.0690    -2.7898     0.1965 C.ar    
   6 C6             0.1468    -1.9157    -0.8779 C.ar    
   7 C7             0.1521    -0.5520    -0.6601 C.ar    
   8 O8             0.0581    -4.1325    -0.0193 O.3     
   9 C9            -1.1220    -4.7842     0.0931 C.2     
  10 N10           -2.2791    -4.2114     0.3012 N.2     
  11 C11           -3.2526    -5.1576     0.3608 C.ar    
  12 C12           -2.6295    -6.4028     0.1731 C.ar    
  13 N13           -1.2820    -6.1358     0.0002 N.pl3   
  14 C14           -4.6342    -5.1030     0.5580 C.ar    
  15 C15           -5.3703    -6.2668     0.5665 C.ar    
  16 C16           -4.7503    -7.4933     0.3807 C.ar    
  17 C17           -3.3863    -7.5644     0.1850 C.ar    
  18 C18           -0.2244    -7.1217    -0.2356 C.3     
  19 H19            0.0551     1.6715     1.7624 H       
  20 H20            0.1599     1.9366     0.1067 H       
  21 H21           -0.0376    -0.5468     2.7184 H       
  22 H22           -0.0572    -2.9763     2.3267 H       
  23 H23            0.1987    -2.3017    -1.8853 H       
  24 H24            0.2082     0.1284    -1.4968 H       
  25 H25           -5.1236    -4.1513     0.7038 H       
  26 H26           -6.4386    -6.2241     0.7194 H       
  27 H27           -5.3388    -8.3988     0.3898 H       
  28 H28           -2.9094    -8.5227     0.0412 H       
  29 H29            0.1827    -7.4533     0.7196 H       
  30 H30           -0.6374    -7.9766    -0.7710 H       
  31 H31            0.5684    -6.6687    -0.8309 H       
@<TRIPOS>BOND
   1    1    2 1
   2    1   19 1
   3    1   20 1
   4    2    3 ar
   5    2    7 ar
   6    3    4 ar
   7    3   21 1
   8    4    5 ar
   9    4   22 1
  10    5    6 ar
  11    5    8 1
  12    6    7 ar
  13    6   23 1
  14    7   24 1
  15    8    9 1
  16    9   10 2
  17    9   13 1
  18   10   11 1
  19   11   12 ar
  20   11   14 ar
  21   12   13 1
  22   12   17 ar
  23   13   18 1
  24   14   15 ar
  25   14   25 1
  26   15   16 ar
  27   15   26 1
  28   16   17 ar
  29   16   27 1
  30   17   28 1
  31   18   29 1
  32   18   30 1
  33   18   31 1

#	End of record

