#	Name: ASD01141051
#	Creating user name:	WinNT
#	Creation time:	15. 06. 2019 19:01

#	Modifying user name:	WinNT
#	Modification time:	15. 06. 2019 19:01

#	Program:	/corina/corina34_cracker 3.40 0067  02.08.2006

@<TRIPOS>MOLECULE
ASD01141051
  61   64    0    0    0
SMALL
NO_CHARGES


@<TRIPOS>ATOM
   1 C1            -0.0834     2.9113    -0.4590 C.3     
   2 C2            -0.3899     1.4154    -0.5165 C.3     
   3 C3             0.1761     0.7106     0.7180 C.3     
   4 C4             1.6854     0.9450     0.7903 C.3     
   5 C5             1.9826     2.4395     0.8833 C.3     
   6 C6             1.4245     3.1426    -0.3532 C.3     
   7 C7             2.2838     0.1892     1.9740 C.3     
   8 C8             3.8003     0.4152     2.0258 C.3     
   9 C9             4.2029     1.3043     0.8495 C.3     
  10 C10            3.4998     2.6545     0.9791 C.3     
  11 C11            5.6799     1.4564     0.6973 C.3     
  12 C12            6.1782     2.8988     0.9301 C.3     
  13 C13            5.5150     3.8342    -0.0474 C.3     
  14 C14            3.9912     3.6510    -0.0542 C.3     
  15 C15            6.6125     0.6682     1.6284 C.3     
  16 C16            7.9928     1.2773     1.2335 C.3     
  17 C17            7.6968     2.7076     0.7154 C.3     
  18 H18           -1.4734     1.2730    -0.5430 H       
  19 O19            0.1834     0.8515    -1.6973 O.3     
  20 C20            1.3468     3.0390     2.1415 C.3     
  21 H21            2.1253     0.5521    -0.1359 H       
  22 C22            6.0090     3.3781     2.3699 C.3     
  23 C23            8.4655     3.7431     1.5333 C.3     
  24 H24            7.9288     2.7911    -0.3409 H       
  25 H25            8.2311     3.6180     2.5904 H       
  26 O26            8.0890     5.0563     1.1140 O.3     
  27 C27            9.9453     3.5530     1.3210 C.2     
  28 C28           10.7218     3.2823     2.3369 C.1     
  29 C29           11.4982     3.0116     3.3528 C.2     
  30 H30           -0.4459     3.3800    -1.3818 H       
  31 H31           -0.6025     3.3665     0.3801 H       
  32 H32           -0.3173     1.0707     1.6147 H       
  33 H33           -0.0098    -0.3652     0.6254 H       
  34 H34            1.9108     2.7491    -1.2473 H       
  35 H35            1.6176     4.2144    -0.2809 H       
  36 H36            1.8303     0.5129     2.9071 H       
  37 H37            2.0925    -0.8817     1.8464 H       
  38 H38            4.0633     0.9044     2.9628 H       
  39 H39            4.3135    -0.5429     1.9536 H       
  40 H40            3.8287     0.8160    -0.0718 H       
  41 H41            3.6548     3.0560     1.9849 H       
  42 H42            5.9481     1.1681    -0.3457 H       
  43 H43            5.7548     4.8733     0.2169 H       
  44 H44            5.9082     3.6513    -1.0566 H       
  45 H45            3.6840     3.3201    -1.0550 H       
  46 H46            3.5174     4.6247     0.1289 H       
  47 H47            6.3912     0.8249     2.6736 H       
  48 H48            6.5897    -0.3944     1.3800 H       
  49 H49            8.6411     1.3203     2.1062 H       
  50 H50            8.4478     0.6793     0.4465 H       
  51 H51           -0.1466     1.2401    -2.5189 H       
  52 H52            1.7507     2.5433     3.0242 H       
  53 H53            1.5704     4.1048     2.1890 H       
  54 H54            0.2668     2.8955     2.1065 H       
  55 H55            6.6837     2.8209     3.0199 H       
  56 H56            6.2430     4.4410     2.4289 H       
  57 H57            4.9796     3.2144     2.6888 H       
  58 H58            8.2692     5.2382     0.1815 H       
  59 H59           10.3642     3.6404     0.3294 H       
  60 H60           11.9564     3.8144     3.9113 H       
  61 H61           11.6816     1.9850     3.6338 H       
@<TRIPOS>BOND
   1    1    2 1
   2    1    6 1
   3    1   30 1
   4    1   31 1
   5    2    3 1
   6    2   18 1
   7    2   19 1
   8    3    4 1
   9    3   32 1
  10    3   33 1
  11    4    5 1
  12    4    7 1
  13    4   21 1
  14    5    6 1
  15    5   20 1
  16    5   10 1
  17    6   34 1
  18    6   35 1
  19    7    8 1
  20    7   36 1
  21    7   37 1
  22    8    9 1
  23    8   38 1
  24    8   39 1
  25    9   10 1
  26    9   11 1
  27    9   40 1
  28   10   14 1
  29   10   41 1
  30   11   12 1
  31   11   15 1
  32   11   42 1
  33   12   13 1
  34   12   17 1
  35   12   22 1
  36   13   14 1
  37   13   43 1
  38   13   44 1
  39   14   45 1
  40   14   46 1
  41   15   16 1
  42   15   47 1
  43   15   48 1
  44   16   17 1
  45   16   49 1
  46   16   50 1
  47   17   23 1
  48   17   24 1
  49   19   51 1
  50   20   52 1
  51   20   53 1
  52   20   54 1
  53   22   55 1
  54   22   56 1
  55   22   57 1
  56   23   25 1
  57   23   26 1
  58   23   27 1
  59   26   58 1
  60   27   28 2
  61   27   59 1
  62   28   29 2
  63   29   60 1
  64   29   61 1

#	End of record

