#	Name: ASD03331602
#	Creating user name:	WinNT
#	Creation time:	15. 06. 2019 20:39

#	Modifying user name:	WinNT
#	Modification time:	15. 06. 2019 20:39

#	Program:	/corina/corina34_cracker 3.40 0067  02.08.2006

@<TRIPOS>MOLECULE
ASD03331602
  62   64    0    0    0
SMALL
NO_CHARGES


@<TRIPOS>ATOM
   1 C1            -0.3638     0.3087     2.3674 C.ar    
   2 C2             0.1049    -0.9732     1.7961 C.2     
   3 N3            -0.6563    -2.0830     1.5986 N.pl3   
   4 C4             0.1328    -3.0337     1.0607 C.2     
   5 C5             1.3776    -2.5048     0.9311 C.2     
   6 N6             1.3273    -1.2326     1.3870 N.2     
   7 C7             2.5639    -3.1901     0.3875 C.2     
   8 N8             3.7432    -2.5416     0.3168 N.am    
   9 C9            -2.0896    -2.2653     1.9020 C.3     
  10 C10           -2.1824    -3.3478     2.9895 C.3     
  11 C11           -2.0414    -4.7261     2.3908 C.3     
  12 N12           -0.7204    -5.1056     1.9358 N.3     
  13 C13           -0.3327    -4.4280     0.6835 C.3     
  14 C14            0.3455     0.9401     3.3960 C.ar    
  15 C15           -0.1284     2.1361     3.8993 C.ar    
  16 N16           -1.2315     2.6808     3.4240 N.ar    
  17 C17           -1.9292     2.1185     2.4556 C.ar    
  18 C18           -1.5254     0.9265     1.8908 C.ar    
  19 O19            2.4785    -4.3406     0.0028 O.2     
  20 C20            4.9224    -3.2227    -0.2235 C.3     
  21 C21           -0.6087    -6.5642     1.8015 C.3     
  22 C22           -2.4914    -5.7455     3.4393 C.3     
  23 C23            4.9293    -3.0980    -1.7484 C.3     
  24 C24            6.1694    -2.5897     0.3379 C.2     
  25 C25            4.9637    -1.6191    -2.1390 C.3     
  26 C26            6.1645    -3.8032    -2.3122 C.3     
  27 C27            3.6667    -3.7470    -2.3189 C.3     
  28 N28            7.3463    -3.2430     0.2694 N.am    
  29 O29            6.1140    -1.4924     0.8515 O.2     
  30 C30            8.5366    -2.6770     0.9089 C.3     
  31 Cl31           1.7979     0.2310     4.0295 Cl      
  32 H32            3.8113    -1.6239     0.6236 H       
  33 H33           -2.5139    -1.3311     2.2696 H       
  34 H34           -2.6210    -2.5901     1.0074 H       
  35 H35           -1.3882    -3.1913     3.7195 H       
  36 H36           -3.1478    -3.2714     3.4897 H       
  37 H37           -2.7229    -4.7966     1.5431 H       
  38 H38           -1.1901    -4.3655     0.0134 H       
  39 H39            0.4787    -4.9733     0.2013 H       
  40 H40            0.4113     2.6315     4.6929 H       
  41 H41           -2.8270     2.6001     2.0974 H       
  42 H42           -2.1017     0.4725     1.0982 H       
  43 H43            4.8928    -4.2762     0.0547 H       
  44 H44           -1.4147    -6.9335     1.1675 H       
  45 H45            0.3518    -6.8151     1.3514 H       
  46 H46           -0.6802    -7.0262     2.7862 H       
  47 H47           -3.4884    -5.4851     3.7947 H       
  48 H48           -2.5128    -6.7399     2.9935 H       
  49 H49           -1.7936    -5.7376     4.2767 H       
  50 H50            5.8632    -1.1568    -1.7325 H       
  51 H51            4.9686    -1.5302    -3.2254 H       
  52 H52            4.0837    -1.1167    -1.7374 H       
  53 H53            6.1051    -4.8696    -2.0944 H       
  54 H54            6.2070    -3.6545    -3.3911 H       
  55 H55            7.0614    -3.3880    -1.8526 H       
  56 H56            2.7867    -3.2446    -1.9173 H       
  57 H57            3.6716    -3.6581    -3.4053 H       
  58 H58            3.6422    -4.8006    -2.0407 H       
  59 H59            7.4051    -4.0879    -0.2034 H       
  60 H60            9.3859    -3.3410     0.7481 H       
  61 H61            8.7520    -1.7002     0.4758 H       
  62 H62            8.3575    -2.5686     1.9786 H       
@<TRIPOS>BOND
   1    1    2 1
   2    1   14 ar
   3    1   18 ar
   4    2    3 1
   5    2    6 2
   6    3    4 1
   7    3    9 1
   8    4    5 2
   9    4   13 1
  10    5    6 1
  11    5    7 1
  12    7    8 am
  13    7   19 2
  14    8   20 1
  15    8   32 1
  16    9   10 1
  17    9   33 1
  18    9   34 1
  19   10   11 1
  20   10   35 1
  21   10   36 1
  22   11   12 1
  23   11   22 1
  24   11   37 1
  25   12   13 1
  26   12   21 1
  27   13   38 1
  28   13   39 1
  29   14   15 ar
  30   14   31 1
  31   15   16 ar
  32   15   40 1
  33   16   17 ar
  34   17   18 ar
  35   17   41 1
  36   18   42 1
  37   20   23 1
  38   20   24 1
  39   20   43 1
  40   21   44 1
  41   21   45 1
  42   21   46 1
  43   22   47 1
  44   22   48 1
  45   22   49 1
  46   23   25 1
  47   23   26 1
  48   23   27 1
  49   24   28 am
  50   24   29 2
  51   25   50 1
  52   25   51 1
  53   25   52 1
  54   26   53 1
  55   26   54 1
  56   26   55 1
  57   27   56 1
  58   27   57 1
  59   27   58 1
  60   28   30 1
  61   28   59 1
  62   30   60 1
  63   30   61 1
  64   30   62 1

#	End of record

