#	Name: ASD03430703
#	Creating user name:	WinNT
#	Creation time:	15. 06. 2019 20:41

#	Modifying user name:	WinNT
#	Modification time:	15. 06. 2019 20:41

#	Program:	/corina/corina34_cracker 3.40 0067  02.08.2006

@<TRIPOS>MOLECULE
ASD03430703
  53   58    0    0    0
SMALL
NO_CHARGES


@<TRIPOS>ATOM
   1 C1            -0.0622     1.4112    -0.0369 C.ar    
   2 C2            -0.0737     0.0246    -0.0870 C.ar    
   3 C3             1.1092    -0.6805    -0.1436 C.ar    
   4 C4             2.3309    -0.0129    -0.1407 C.ar    
   5 C5             2.3400     1.3759    -0.0940 C.ar    
   6 C6             1.1498     2.0909    -0.0401 C.ar    
   7 O7             3.3737    -0.8915    -0.1734 O.3     
   8 C8             1.4235    -2.1499    -0.2284 C.3     
   9 C9             2.9029    -2.1711    -0.6375 C.3     
  10 C10            0.2803    -3.8751     0.7905 C.ar    
  11 C11            1.1925    -2.8607     1.0720 C.ar    
  12 C12            0.5591    -2.8610    -1.2297 C.2     
  13 N13           -0.0693    -3.8488    -0.5617 N.am    
  14 O14            0.4480    -2.5978    -2.4085 O.2     
  15 C15            1.6790    -2.6909     2.3485 C.ar    
  16 C16            1.2646    -3.5324     3.3661 C.ar    
  17 C17            0.3608    -4.5436     3.0976 C.ar    
  18 C18           -0.1306    -4.7173     1.8202 C.ar    
  19 C19           -1.0087    -4.7864    -1.1819 C.3     
  20 C20           -2.4267    -4.2178    -1.0983 C.3     
  21 C21           -3.4231    -5.1972    -1.7484 C.3     
  22 C22           -4.4234    -5.5291    -0.6144 C.3     
  23 C23           -4.2298    -4.3315     0.3502 C.3     
  24 O24           -2.8123    -4.0666     0.2781 O.3     
  25 O25           -1.2499     2.0763     0.0077 O.3     
  26 C26           -1.1993     3.4577     0.3793 C.3     
  27 C27           -0.0501     4.1130    -0.3979 C.3     
  28 N28            1.2111     3.4874     0.0158 N.3     
  29 C29            2.3369     3.9971    -0.7784 C.3     
  30 H30           -1.0148    -0.5052    -0.0812 H       
  31 H31            3.2816     1.9048    -0.0989 H       
  32 H32            3.0040    -2.2514    -1.7198 H       
  33 H33            3.4313    -2.9826    -0.1371 H       
  34 H34            2.3851    -1.9005     2.5560 H       
  35 H35            1.6466    -3.3996     4.3675 H       
  36 H36            0.0383    -5.2009     3.8916 H       
  37 H37           -0.8366    -5.5093     1.6183 H       
  38 H38           -0.7376    -4.9344    -2.2272 H       
  39 H39           -0.9686    -5.7411    -0.6575 H       
  40 H40           -2.4698    -3.2540    -1.6057 H       
  41 H41           -3.9371    -4.7205    -2.5831 H       
  42 H42           -2.9096    -6.0995    -2.0804 H       
  43 H43           -5.4447    -5.5619    -0.9938 H       
  44 H44           -4.1608    -6.4678    -0.1266 H       
  45 H45           -4.7996    -3.4674     0.0085 H       
  46 H46           -4.5179    -4.6056     1.3651 H       
  47 H47           -2.1413     3.9431     0.1238 H       
  48 H48           -1.0172     3.5452     1.4504 H       
  49 H49           -0.1994     3.9633    -1.4672 H       
  50 H50           -0.0196     5.1797    -0.1758 H       
  51 H51            2.3415     5.0866    -0.7447 H       
  52 H52            3.2725     3.6169    -0.3682 H       
  53 H53            2.2321     3.6660    -1.8115 H       
@<TRIPOS>BOND
   1    1    2 ar
   2    1    6 ar
   3    1   25 1
   4    2    3 ar
   5    2   30 1
   6    3    4 ar
   7    3    8 1
   8    4    5 ar
   9    4    7 1
  10    5    6 ar
  11    5   31 1
  12    6   28 1
  13    7    9 1
  14    8    9 1
  15    8   11 1
  16    8   12 1
  17    9   32 1
  18    9   33 1
  19   10   11 ar
  20   10   13 1
  21   10   18 ar
  22   11   15 ar
  23   12   13 am
  24   12   14 2
  25   13   19 1
  26   15   16 ar
  27   15   34 1
  28   16   17 ar
  29   16   35 1
  30   17   18 ar
  31   17   36 1
  32   18   37 1
  33   19   20 1
  34   19   38 1
  35   19   39 1
  36   20   21 1
  37   20   24 1
  38   20   40 1
  39   21   22 1
  40   21   41 1
  41   21   42 1
  42   22   23 1
  43   22   43 1
  44   22   44 1
  45   23   24 1
  46   23   45 1
  47   23   46 1
  48   25   26 1
  49   26   27 1
  50   26   47 1
  51   26   48 1
  52   27   28 1
  53   27   49 1
  54   27   50 1
  55   28   29 1
  56   29   51 1
  57   29   52 1
  58   29   53 1

#	End of record

