#	Name: ASD03731212
#	Creating user name:	WinNT
#	Creation time:	15. 06. 2019 20:45

#	Modifying user name:	WinNT
#	Modification time:	15. 06. 2019 20:45

#	Program:	/corina/corina34_cracker 3.40 0067  02.08.2006

@<TRIPOS>MOLECULE
ASD03731212
  75   82    0    0    0
SMALL
NO_CHARGES


@<TRIPOS>ATOM
   1 C1            -2.9153     0.1826    -2.4401 C.2     
   2 C2            -4.0417     1.0163    -2.9113 C.ar    
   3 C3            -4.5308     0.8645    -4.2097 C.ar    
   4 C4            -5.5824     1.6453    -4.6430 C.ar    
   5 C5            -6.1517     2.5775    -3.7937 C.ar    
   6 C6            -5.6716     2.7329    -2.5055 C.ar    
   7 C7            -4.6243     1.9544    -2.0578 C.ar    
   8 O8            -2.7033    -0.8988    -2.9531 O.2     
   9 N9            -2.1201     0.6240    -1.4455 N.am    
  10 C10           -7.2996     3.4276    -4.2742 C.3     
  11 O11           -9.2902    -1.5113     0.5565 O.3     
  12 C12          -10.2726    -2.3381     1.2079 C.3     
  13 O13          -11.4275    -1.4841     1.3068 O.3     
  14 C14          -11.3184    -0.5999     0.2719 C.ar    
  15 C15          -10.0037    -0.6163    -0.1884 C.ar    
  16 C16          -12.2499     0.2304    -0.3251 C.ar    
  17 C17          -11.8832     1.0545    -1.3849 C.ar    
  18 C18          -10.5650     1.0354    -1.8304 C.ar    
  19 C19           -9.6353     0.2041    -1.2413 C.ar    
  20 O20          -12.6390     1.9236    -2.1154 O.3     
  21 C21          -10.4758     2.0386    -2.9491 C.3     
  22 C22          -11.7717     2.8475    -2.8007 C.3     
  23 N23           -8.5650     2.7496    -3.9824 N.am    
  24 C24           -9.2570     2.9084    -2.8365 C.2     
  25 C25          -10.3752     1.3851    -4.2954 C.ar    
  26 C26          -11.1686     0.4931    -4.9817 C.ar    
  27 C27          -10.7980     0.0648    -6.2439 C.ar    
  28 C28           -9.6286     0.5342    -6.8143 C.ar    
  29 C29           -8.8301     1.4270    -6.1305 C.ar    
  30 C30           -9.1955     1.8639    -4.8595 C.ar    
  31 O31           -8.9546     3.6154    -1.8986 O.2     
  32 C32           -1.0433    -0.2284    -0.9355 C.3     
  33 C33            0.2175     0.0323    -1.7188 C.ar    
  34 C34            1.1033     1.0068    -1.2986 C.ar    
  35 C35            2.2598     1.2459    -2.0171 C.ar    
  36 C36            2.5306     0.5102    -3.1557 C.ar    
  37 C37            1.6453    -0.4649    -3.5754 C.ar    
  38 C38            0.4909    -0.7070    -2.8544 C.ar    
  39 C39           -2.3325     1.9563    -0.8744 C.3     
  40 C40           -3.1048     1.8333     0.4138 C.ar    
  41 C41           -4.0002     2.8208     0.7799 C.ar    
  42 C42           -4.7086     2.7080     1.9616 C.ar    
  43 C43           -4.5218     1.6075     2.7770 C.ar    
  44 C44           -3.6270     0.6196     2.4105 C.ar    
  45 C45           -2.9219     0.7303     1.2267 C.ar    
  46 H46           -4.0868     0.1378    -4.8739 H       
  47 H47           -5.9618     1.5289    -5.6474 H       
  48 H48           -6.1205     3.4623    -1.8475 H       
  49 H49           -4.2534     2.0736    -1.0505 H       
  50 H50           -7.2771     4.3905    -3.7638 H       
  51 H51           -7.2107     3.5841    -5.3492 H       
  52 H52          -10.4964    -3.2162     0.6021 H       
  53 H53           -9.9283    -2.6331     2.1991 H       
  54 H54          -13.2685     0.2393     0.0337 H       
  55 H55           -8.6174     0.1933    -1.6020 H       
  56 H56          -12.1789     3.1089    -3.7774 H       
  57 H57          -11.6039     3.7403    -2.1984 H       
  58 H58          -12.0812     0.1277    -4.5343 H       
  59 H59          -11.4205    -0.6341    -6.7829 H       
  60 H60           -9.3393     0.1997    -7.7996 H       
  61 H61           -7.9182     1.7886    -6.5822 H       
  62 H62           -0.8700    -0.0041     0.1170 H       
  63 H63           -1.3273    -1.2753    -1.0420 H       
  64 H64            0.8917     1.5816    -0.4091 H       
  65 H65            2.9515     2.0077    -1.6892 H       
  66 H66            3.4338     0.6975    -3.7175 H       
  67 H67            1.8567    -1.0395    -4.4651 H       
  68 H68           -0.1990    -1.4713    -3.1803 H       
  69 H69           -1.3684     2.4249    -0.6768 H       
  70 H70           -2.8961     2.5680    -1.5789 H       
  71 H71           -4.1461     3.6806     0.1428 H       
  72 H72           -5.4076     3.4798     2.2479 H       
  73 H73           -5.0747     1.5197     3.7006 H       
  74 H74           -3.4809    -0.2400     3.0478 H       
  75 H75           -2.2255    -0.0433     0.9386 H       
@<TRIPOS>BOND
   1    1    2 1
   2    1    8 2
   3    1    9 am
   4    2    3 ar
   5    2    7 ar
   6    3    4 ar
   7    3   46 1
   8    4    5 ar
   9    4   47 1
  10    5    6 ar
  11    5   10 1
  12    6    7 ar
  13    6   48 1
  14    7   49 1
  15    9   32 1
  16    9   39 1
  17   10   23 1
  18   10   50 1
  19   10   51 1
  20   11   12 1
  21   11   15 1
  22   12   13 1
  23   12   52 1
  24   12   53 1
  25   13   14 1
  26   14   15 ar
  27   14   16 ar
  28   15   19 ar
  29   16   17 ar
  30   16   54 1
  31   17   18 ar
  32   17   20 1
  33   18   19 ar
  34   18   21 1
  35   19   55 1
  36   20   22 1
  37   21   22 1
  38   21   24 1
  39   21   25 1
  40   22   56 1
  41   22   57 1
  42   23   24 am
  43   23   30 1
  44   24   31 2
  45   25   26 ar
  46   25   30 ar
  47   26   27 ar
  48   26   58 1
  49   27   28 ar
  50   27   59 1
  51   28   29 ar
  52   28   60 1
  53   29   30 ar
  54   29   61 1
  55   32   33 1
  56   32   62 1
  57   32   63 1
  58   33   34 ar
  59   33   38 ar
  60   34   35 ar
  61   34   64 1
  62   35   36 ar
  63   35   65 1
  64   36   37 ar
  65   36   66 1
  66   37   38 ar
  67   37   67 1
  68   38   68 1
  69   39   40 1
  70   39   69 1
  71   39   70 1
  72   40   41 ar
  73   40   45 ar
  74   41   42 ar
  75   41   71 1
  76   42   43 ar
  77   42   72 1
  78   43   44 ar
  79   43   73 1
  80   44   45 ar
  81   44   74 1
  82   45   75 1

#	End of record

