#	Name: ASD03731760
#	Creating user name:	WinNT
#	Creation time:	15. 06. 2019 20:46

#	Modifying user name:	WinNT
#	Modification time:	15. 06. 2019 20:46

#	Program:	/corina/corina34_cracker 3.40 0067  02.08.2006

@<TRIPOS>MOLECULE
ASD03731760
  33   34    0    0    0
SMALL
NO_CHARGES


@<TRIPOS>ATOM
   1 C1             0.7579     1.4155    -0.4017 C.2     
   2 C2             0.5738    -0.0455    -0.3014 C.ar    
   3 C3             1.5329    -0.9107    -0.8346 C.ar    
   4 C4             1.3575    -2.2730    -0.7391 C.ar    
   5 C5             0.2278    -2.7881    -0.1136 C.ar    
   6 C6            -0.7286    -1.9306     0.4181 C.ar    
   7 C7            -0.5574    -0.5671     0.3320 C.ar    
   8 O8             1.7451     1.8677    -0.9488 O.2     
   9 N9            -0.1709     2.2484     0.1082 N.am    
  10 S10            0.0357     3.8876    -0.0043 S.o2    
  11 O11           -1.1031     4.4301     0.6500 O.2     
  12 O12            1.3456     4.1111     0.4991 O.2     
  13 C13           -0.0293     4.2309    -1.7844 C.3     
  14 O14            0.0580    -4.1313    -0.0222 O.3     
  15 C15            0.5841    -4.7689     1.0565 C.ar    
  16 C16            1.1753    -4.0367     2.0759 C.ar    
  17 C17            1.7096    -4.6878     3.1731 C.ar    
  18 C18            1.6541    -6.0705     3.2532 C.ar    
  19 C19            1.0648    -6.8004     2.2370 C.ar    
  20 C20            0.5254    -6.1524     1.1421 C.ar    
  21 F21            2.2859    -3.9762     4.1664 F       
  22 Cl22           2.3255    -6.8870     4.6303 Cl      
  23 H23            2.4104    -0.5113    -1.3213 H       
  24 H24            2.0983    -2.9424    -1.1509 H       
  25 H25           -1.6049    -2.3345     0.9033 H       
  26 H26           -1.2984     0.0984     0.7496 H       
  27 H27           -0.9605     1.8877     0.5411 H       
  28 H28           -0.9941     3.9142    -2.1805 H       
  29 H29            0.0996     5.3000    -1.9532 H       
  30 H30            0.7676     3.6847    -2.2891 H       
  31 H31            1.2185    -2.9594     2.0127 H       
  32 H32            1.0228    -7.8777     2.3009 H       
  33 H33            0.0616    -6.7232     0.3513 H       
@<TRIPOS>BOND
   1    1    2 1
   2    1    8 2
   3    1    9 am
   4    2    3 ar
   5    2    7 ar
   6    3    4 ar
   7    3   23 1
   8    4    5 ar
   9    4   24 1
  10    5    6 ar
  11    5   14 1
  12    6    7 ar
  13    6   25 1
  14    7   26 1
  15    9   10 am
  16    9   27 1
  17   10   11 2
  18   10   12 2
  19   10   13 1
  20   13   28 1
  21   13   29 1
  22   13   30 1
  23   14   15 1
  24   15   16 ar
  25   15   20 ar
  26   16   17 ar
  27   16   31 1
  28   17   18 ar
  29   17   21 1
  30   18   19 ar
  31   18   22 1
  32   19   20 ar
  33   19   32 1
  34   20   33 1

#	End of record

