#	Name: ASD01900668
#	Creating user name:	WinNT
#	Creation time:	15. 06. 2019 19:52

#	Modifying user name:	WinNT
#	Modification time:	15. 06. 2019 19:52

#	Program:	/corina/corina34_cracker 3.40 0067  02.08.2006

@<TRIPOS>MOLECULE
ASD01900668
  62   66    0    0    0
SMALL
NO_CHARGES


@<TRIPOS>ATOM
   1 C1            -0.0184     1.4106     0.1344 C.ar    
   2 C2            -0.0083     0.0181     0.1234 C.ar    
   3 C3             1.1909    -0.6777     0.0641 C.ar    
   4 C4             2.3910     0.0146     0.0146 C.ar    
   5 C5             2.3727     1.4175     0.0299 C.ar    
   6 O6             3.5642    -0.6501    -0.0550 O.3     
   7 C7             4.7374    -0.0420     0.1916 C.2     
   8 C8             4.8727     1.3045     0.2223 C.2     
   9 C9             3.6731     2.1314    -0.0105 C.2     
  10 C10            5.9288    -0.8782     0.4400 C.ar    
  11 N11            7.1019    -0.2882     0.6866 N.ar    
  12 C12            8.1990    -0.9656     0.9159 C.ar    
  13 C13            8.1779    -2.3714     0.9095 C.ar    
  14 C14            6.9502    -3.0375     0.6514 C.ar    
  15 C15            5.8053    -2.2586     0.4181 C.ar    
  16 C16            9.3331    -3.1305     1.1498 C.ar    
  17 C17            9.2596    -4.4908     1.1321 C.ar    
  18 C18            8.0548    -5.1436     0.8785 C.ar    
  19 C19            6.9123    -4.4403     0.6416 C.ar    
  20 C20            1.1689     2.1099     0.0878 C.ar    
  21 N21           -1.2125    -0.6825     0.1727 N.pl3   
  22 C22           -2.4818     0.0462     0.2359 C.3     
  23 C23           -3.6409    -0.9515     0.2810 C.3     
  24 C24           -4.9666    -0.1905     0.3469 C.3     
  25 N25           -6.0795    -1.1485     0.3902 N.3     
  26 C26           -7.3474    -0.4694     0.6914 C.3     
  27 C27           -5.8152    -2.2193     1.3613 C.3     
  28 C28           -6.9581    -3.2363     1.3189 C.3     
  29 N29           -8.2260    -2.5573     1.6201 N.3     
  30 C30           -8.4903    -1.4865     0.6490 C.3     
  31 C31           -9.3389    -3.5152     1.6634 C.3     
  32 N32            3.7513     3.4204    -0.2392 N.2     
  33 O33            2.5915     4.1466    -0.6031 O.3     
  34 H34           -0.9571     1.9431     0.1750 H       
  35 H35            1.1894    -1.7577     0.0568 H       
  36 H36            5.8328     1.7612     0.4122 H       
  37 H37            9.1235    -0.4424     1.1103 H       
  38 H38            4.8518    -2.7246     0.2179 H       
  39 H39           10.2746    -2.6397     1.3473 H       
  40 H40           10.1501    -5.0731     1.3174 H       
  41 H41            8.0262    -6.2231     0.8699 H       
  42 H42            5.9850    -4.9583     0.4463 H       
  43 H43            1.1635     3.1899     0.0955 H       
  44 H44           -1.2099    -1.6525     0.1652 H       
  45 H45           -2.5008     0.6659     1.1324 H       
  46 H46           -2.5815     0.6794    -0.6457 H       
  47 H47           -3.6219    -1.5712    -0.6155 H       
  48 H48           -3.5412    -1.5848     1.1625 H       
  49 H49           -4.9856     0.4292     1.2434 H       
  50 H50           -5.0663     0.4427    -0.5346 H       
  51 H51           -7.2941    -0.0235     1.6846 H       
  52 H52           -7.5270     0.3105    -0.0485 H       
  53 H53           -4.8776    -2.7151     1.1098 H       
  54 H54           -5.7445    -1.7933     2.3621 H       
  55 H55           -7.0114    -3.6822     0.3257 H       
  56 H56           -6.7785    -4.0163     2.0589 H       
  57 H57           -9.4279    -0.9906     0.9006 H       
  58 H58           -8.5610    -1.9125    -0.3518 H       
  59 H59           -9.1483    -4.2589     2.4371 H       
  60 H60          -10.2651    -2.9862     1.8881 H       
  61 H61           -9.4291    -4.0113     0.6970 H       
  62 H62            2.7480     5.0893    -0.7510 H       
@<TRIPOS>BOND
   1    1    2 ar
   2    1   20 ar
   3    1   34 1
   4    2    3 ar
   5    2   21 1
   6    3    4 ar
   7    3   35 1
   8    4    5 ar
   9    4    6 1
  10    5   20 ar
  11    5    9 1
  12    6    7 1
  13    7    8 2
  14    7   10 1
  15    8    9 1
  16    8   36 1
  17    9   32 2
  18   10   11 ar
  19   10   15 ar
  20   11   12 ar
  21   12   13 ar
  22   12   37 1
  23   13   14 ar
  24   13   16 ar
  25   14   15 ar
  26   14   19 ar
  27   15   38 1
  28   16   17 ar
  29   16   39 1
  30   17   18 ar
  31   17   40 1
  32   18   19 ar
  33   18   41 1
  34   19   42 1
  35   20   43 1
  36   21   22 1
  37   21   44 1
  38   22   23 1
  39   22   45 1
  40   22   46 1
  41   23   24 1
  42   23   47 1
  43   23   48 1
  44   24   25 1
  45   24   49 1
  46   24   50 1
  47   25   26 1
  48   25   27 1
  49   26   30 1
  50   26   51 1
  51   26   52 1
  52   27   28 1
  53   27   53 1
  54   27   54 1
  55   28   29 1
  56   28   55 1
  57   28   56 1
  58   29   30 1
  59   29   31 1
  60   30   57 1
  61   30   58 1
  62   31   59 1
  63   31   60 1
  64   31   61 1
  65   32   33 1
  66   33   62 1

#	End of record

