#	Name: ASD03331482
#	Creating user name:	WinNT
#	Creation time:	15. 06. 2019 20:39

#	Modifying user name:	WinNT
#	Modification time:	15. 06. 2019 20:39

#	Program:	/corina/corina34_cracker 3.40 0067  02.08.2006

@<TRIPOS>MOLECULE
ASD03331482
  61   64    0    0    0
SMALL
NO_CHARGES


@<TRIPOS>ATOM
   1 C1            -0.0180     1.4750     0.0102 C.ar    
   2 C2             0.0021    -0.0041     0.0020 C.2     
   3 N3            -1.0198    -0.8136     0.3847 N.pl3   
   4 C4            -0.6011    -2.1032     0.2305 C.2     
   5 C5             0.6674    -2.0580    -0.2466 C.2     
   6 N6             1.0095    -0.7560    -0.3820 N.2     
   7 C7             1.5179    -3.2182    -0.5661 C.2     
   8 N8             2.7669    -3.0291    -1.0360 N.am    
   9 C9            -0.9791     2.1577     0.7562 C.ar    
  10 O10            1.0928    -4.3464    -0.4058 O.2     
  11 C11            3.6124    -4.1825    -1.3536 C.3     
  12 C12            3.3083    -4.6620    -2.7743 C.3     
  13 C13            5.0626    -3.7838    -1.2577 C.2     
  14 C14            3.5933    -3.5322    -3.7659 C.3     
  15 C15           -2.3511    -0.4503     0.8780 C.3     
  16 C16           -3.2538    -1.6865     0.7738 C.3     
  17 N17           -2.5851    -2.8447     1.3830 N.3     
  18 C18           -1.4533    -3.3023     0.5568 C.3     
  19 C19            4.1914    -5.8666    -3.1061 C.3     
  20 N20            6.0224    -4.4627    -0.6769 N.2     
  21 C21           -0.9932     3.5389     0.7601 C.ar    
  22 C22           -0.0536     4.2460     0.0232 C.ar    
  23 C23            0.9018     3.5709    -0.7190 C.ar    
  24 C24            0.9279     2.1918    -0.7237 C.ar    
  25 F25           -0.0709     5.5968     0.0292 F       
  26 F26           -1.9230     4.2022     1.4818 F       
  27 C27           -3.5378    -3.9369     1.6222 C.3     
  28 C28           -4.5709    -1.4174     1.5044 C.3     
  29 C29            1.8360    -5.0668    -2.8717 C.3     
  30 O30            5.6172    -2.6735    -1.7534 O.3     
  31 N31            6.8038    -2.6592    -1.5020 N.2     
  32 C32            7.1362    -3.7267    -0.8397 C.2     
  33 C33            8.5162    -4.0759    -0.3452 C.3     
  34 H34            3.1059    -2.1293    -1.1639 H       
  35 H35           -1.7108     1.6074     1.3291 H       
  36 H36            3.4094    -4.9874    -0.6472 H       
  37 H37            4.6421    -3.2439    -3.6966 H       
  38 H38            3.3765    -3.8739    -4.7781 H       
  39 H39            2.9641    -2.6741    -3.5296 H       
  40 H40           -2.2835    -0.1308     1.9180 H       
  41 H41           -2.7609     0.3567     0.2706 H       
  42 H42           -3.4594    -1.8975    -0.2756 H       
  43 H43           -1.8267    -3.7504    -0.3640 H       
  44 H44           -0.8644    -4.0333     1.1108 H       
  45 H45            3.9883    -6.6715    -2.3996 H       
  46 H46            3.9747    -6.2082    -4.1182 H       
  47 H47            5.2402    -5.5782    -3.0367 H       
  48 H48            1.6304     4.1257    -1.2914 H       
  49 H49            1.6735     1.6673    -1.3029 H       
  50 H50           -3.9803    -4.2469     0.6755 H       
  51 H51           -3.0167    -4.7813     2.0734 H       
  52 H52           -4.3233    -3.5931     2.2951 H       
  53 H53           -5.0708    -0.5624     1.0493 H       
  54 H54           -5.2130    -2.2952     1.4310 H       
  55 H55           -4.3672    -1.2030     2.5536 H       
  56 H56            1.2069    -4.2086    -2.6354 H       
  57 H57            1.6193    -5.4084    -3.8839 H       
  58 H58            1.6330    -5.8716    -2.1653 H       
  59 H59            8.6561    -3.6716     0.6574 H       
  60 H60            8.6293    -5.1597    -0.3189 H       
  61 H61            9.2615    -3.6490    -1.0163 H       
@<TRIPOS>BOND
   1    1    2 1
   2    1    9 ar
   3    1   24 ar
   4    2    3 1
   5    2    6 2
   6    3    4 1
   7    3   15 1
   8    4    5 2
   9    4   18 1
  10    5    6 1
  11    5    7 1
  12    7    8 am
  13    7   10 2
  14    8   11 1
  15    8   34 1
  16    9   21 ar
  17    9   35 1
  18   11   12 1
  19   11   13 1
  20   11   36 1
  21   12   14 1
  22   12   19 1
  23   12   29 1
  24   13   20 2
  25   13   30 1
  26   14   37 1
  27   14   38 1
  28   14   39 1
  29   15   16 1
  30   15   40 1
  31   15   41 1
  32   16   17 1
  33   16   28 1
  34   16   42 1
  35   17   18 1
  36   17   27 1
  37   18   43 1
  38   18   44 1
  39   19   45 1
  40   19   46 1
  41   19   47 1
  42   20   32 1
  43   21   22 ar
  44   21   26 1
  45   22   23 ar
  46   22   25 1
  47   23   24 ar
  48   23   48 1
  49   24   49 1
  50   27   50 1
  51   27   51 1
  52   27   52 1
  53   28   53 1
  54   28   54 1
  55   28   55 1
  56   29   56 1
  57   29   57 1
  58   29   58 1
  59   30   31 1
  60   31   32 2
  61   32   33 1
  62   33   59 1
  63   33   60 1
  64   33   61 1

#	End of record

