#	Name: ASD01884657
#	Creating user name:	WinNT
#	Creation time:	15. 06. 2019 19:48

#	Modifying user name:	WinNT
#	Modification time:	15. 06. 2019 19:48

#	Program:	/corina/corina34_cracker 3.40 0067  02.08.2006

@<TRIPOS>MOLECULE
ASD01884657
  57   59    0    0    0
SMALL
NO_CHARGES


@<TRIPOS>ATOM
   1 C1            -0.4287     1.3928     0.5761 C.2     
   2 C2            -0.3947     0.0326     0.5203 C.2     
   3 C3             0.8391    -0.6161     0.2972 C.2     
   4 C4             1.9744     0.1253     0.1413 C.2     
   5 N5             1.9268     1.4795     0.1995 N.am    
   6 C6             0.7626     2.1212     0.4107 C.2     
   7 O7             0.7410     3.3406     0.4593 O.2     
   8 C8             0.9015    -2.0973     0.2328 C.ar    
   9 C9             3.1587     2.2540     0.0302 C.3     
  10 C10            3.3556     2.5719    -1.4296 C.ar    
  11 C11            2.6591     3.6180    -2.0103 C.ar    
  12 C12            2.8410     3.9097    -3.3516 C.ar    
  13 C13            3.7181     3.1557    -4.1096 C.ar    
  14 C14            4.4135     2.1104    -3.5275 C.ar    
  15 C15            4.2359     1.8226    -2.1875 C.ar    
  16 F16            1.8022     4.3535    -1.2688 F       
  17 Cl17           3.9465     3.5202    -5.7915 Cl      
  18 C18            0.6024    -2.8584     1.3613 C.ar    
  19 C19            1.2538    -2.7303    -0.9578 C.ar    
  20 C20            1.3110    -4.1072    -1.0145 C.ar    
  21 C21            1.0176    -4.8625     0.1126 C.ar    
  22 C22            0.6613    -4.2350     1.2985 C.ar    
  23 O23            1.0739    -6.2190     0.0535 O.3     
  24 C24            0.7599    -6.9342     1.2501 C.3     
  25 C25            0.8765    -8.4376     0.9912 C.3     
  26 C26            0.5403    -9.2033     2.2725 C.3     
  27 N27            0.6518   -10.6429     2.0246 N.am    
  28 C28            1.8093   -11.2833     2.2824 C.2     
  29 C29           -0.4030   -11.3267     1.5387 C.2     
  30 C30           -1.7299   -10.6359     1.3570 C.3     
  31 O31           -0.2844   -12.4976     1.2478 O.2     
  32 C32            3.0239   -10.5012     2.7114 C.3     
  33 O33            1.8734   -12.4886     2.1693 O.2     
  34 H34           -1.3634     1.9079     0.7416 H       
  35 H35           -1.3001    -0.5426     0.6456 H       
  36 H36            2.9185    -0.3706    -0.0295 H       
  37 H37            3.0854     3.1819     0.5975 H       
  38 H38            4.0062     1.6724     0.3930 H       
  39 H39            2.2978     4.7253    -3.8056 H       
  40 H40            5.0985     1.5218    -4.1197 H       
  41 H41            4.7791     1.0066    -1.7341 H       
  42 H42            0.3251    -2.3708     2.2842 H       
  43 H43            1.4814    -2.1432    -1.8352 H       
  44 H44            1.5839    -4.5983    -1.9369 H       
  45 H45            0.4340    -4.8252     2.1739 H       
  46 H46            1.4554    -6.6463     2.0385 H       
  47 H47           -0.2580    -6.6965     1.5589 H       
  48 H48            0.1810    -8.7255     0.2028 H       
  49 H49            1.8944    -8.6753     0.6824 H       
  50 H50            1.2357    -8.9154     3.0609 H       
  51 H51           -0.4777    -8.9656     2.5813 H       
  52 H52           -1.6197    -9.5739     1.5762 H       
  53 H53           -2.0671   -10.7614     0.3281 H       
  54 H54           -2.4628   -11.0727     2.0354 H       
  55 H55            2.7611    -9.4482     2.8120 H       
  56 H56            3.3802   -10.8798     3.6694 H       
  57 H57            3.8090   -10.6099     1.9631 H       
@<TRIPOS>BOND
   1    1    2 2
   2    1    6 1
   3    1   34 1
   4    2    3 1
   5    2   35 1
   6    3    4 2
   7    3    8 1
   8    4    5 1
   9    4   36 1
  10    5    6 am
  11    5    9 1
  12    6    7 2
  13    8   18 ar
  14    8   19 ar
  15    9   10 1
  16    9   37 1
  17    9   38 1
  18   10   11 ar
  19   10   15 ar
  20   11   12 ar
  21   11   16 1
  22   12   13 ar
  23   12   39 1
  24   13   14 ar
  25   13   17 1
  26   14   15 ar
  27   14   40 1
  28   15   41 1
  29   18   22 ar
  30   18   42 1
  31   19   20 ar
  32   19   43 1
  33   20   21 ar
  34   20   44 1
  35   21   22 ar
  36   21   23 1
  37   22   45 1
  38   23   24 1
  39   24   25 1
  40   24   46 1
  41   24   47 1
  42   25   26 1
  43   25   48 1
  44   25   49 1
  45   26   27 1
  46   26   50 1
  47   26   51 1
  48   27   28 am
  49   27   29 am
  50   28   32 1
  51   28   33 2
  52   29   30 1
  53   29   31 2
  54   30   52 1
  55   30   53 1
  56   30   54 1
  57   32   55 1
  58   32   56 1
  59   32   57 1

#	End of record

