#	Name: ASD04400004
#	Creating user name:	WinNT
#	Creation time:	15. 06. 2019 20:49

#	Modifying user name:	WinNT
#	Modification time:	15. 06. 2019 20:49

#	Program:	/corina/corina34_cracker 3.40 0067  02.08.2006

@<TRIPOS>MOLECULE
ASD04400004
  18   17    0    0    0
SMALL
NO_CHARGES


@<TRIPOS>ATOM
   1 C1            -0.0225     1.8097     0.0120 C.3     
   2 S2             0.0021    -0.0041     0.0020 S.3     
   3 C3             1.4129     2.3393     0.0011 C.3     
   4 O4             2.0451     1.9766    -1.2280 O.3     
   5 C5             1.3952     3.8633     0.1352 C.3     
   6 O6             0.7629     4.2261     1.3643 O.3     
   7 C7             2.8306     4.3929     0.1244 C.3     
   8 S8             2.8097     6.1998     0.2833 S.3     
   9 H9            -0.5497     2.1708    -0.8711 H       
  10 H10           -0.5327     2.1613     0.9088 H       
  11 H11           -1.3042    -0.3244     0.0128 H       
  12 H12            1.9658     1.9076     0.8354 H       
  13 H13            1.6057     2.3272    -2.0148 H       
  14 H14            0.8423     4.2951    -0.6990 H       
  15 H15            1.2024     3.8755     2.1511 H       
  16 H16            3.3835     3.9612     0.9586 H       
  17 H17            3.3129     4.1162    -0.8132 H       
  18 H18            4.1156     6.5208     0.2594 H       
@<TRIPOS>BOND
   1    1    2 1
   2    1    3 1
   3    1    9 1
   4    1   10 1
   5    2   11 1
   6    3    4 1
   7    3    5 1
   8    3   12 1
   9    4   13 1
  10    5    6 1
  11    5    7 1
  12    5   14 1
  13    6   15 1
  14    7    8 1
  15    7   16 1
  16    7   17 1
  17    8   18 1

#	End of record

