#	Name: ASD02038116
#	Creating user name:	WinNT
#	Creation time:	15. 06. 2019 20:16

#	Modifying user name:	WinNT
#	Modification time:	15. 06. 2019 20:16

#	Program:	/corina/corina34_cracker 3.40 0067  02.08.2006

@<TRIPOS>MOLECULE
ASD02038116
  51   53    0    0    0
SMALL
NO_CHARGES


@<TRIPOS>ATOM
   1 C1            -0.1689     1.1571     0.1082 C.ar    
   2 C2            -0.0900    -0.2188    -0.0056 C.ar    
   3 C3             0.9851     1.9138     0.1990 C.ar    
   4 C4             2.2206     1.2971     0.1764 C.ar    
   5 C5             2.3034    -0.0848     0.0622 C.ar    
   6 C6             1.1422    -0.8419    -0.0288 C.ar    
   7 N7             3.5513    -0.7117     0.0385 N.3     
   8 C8             6.8916    -3.1215     0.9773 C.3     
   9 C9             6.7041    -4.6356     1.0930 C.3     
  10 C10            8.0598    -5.3299     0.9485 C.3     
  11 O11            6.1415    -4.9498     2.3684 O.3     
  12 O12            7.8710    -6.7463     0.9398 O.3     
  13 C13            8.9847    -7.5168     0.8173 C.ar    
  14 C14            8.8734    -8.8993     0.8017 C.ar    
  15 C15           10.0047    -9.6819     0.6773 C.ar    
  16 C16           11.2520    -9.0854     0.5675 C.ar    
  17 C17           11.3633    -7.7030     0.5822 C.ar    
  18 C18           10.2315    -6.9202     0.7022 C.ar    
  19 O19           12.3659    -9.8559     0.4459 O.3     
  20 C20            3.4065    -2.1686    -0.0873 C.3     
  21 C21            4.7926    -2.8094    -0.1896 C.3     
  22 N22            5.5791    -2.4622     1.0023 N.3     
  23 C23            5.7239    -1.0052     1.1281 C.3     
  24 C24            4.3378    -0.3644     1.2303 C.3     
  25 C25           -1.5151     1.8340     0.1270 C.3     
  26 F26           -1.9691     1.9327     1.4466 F       
  27 F27           -1.4008     3.1149    -0.4239 F       
  28 F28           -2.4253     1.0828    -0.6244 F       
  29 H29           -0.9932    -0.8068    -0.0759 H       
  30 H30            0.9200     2.9882     0.2875 H       
  31 H31            3.1214     1.8887     0.2470 H       
  32 H32            1.2031    -1.9165    -0.1174 H       
  33 H33            7.4932    -2.7650     1.8135 H       
  34 H34            7.3975    -2.8886     0.0404 H       
  35 H35            6.0338    -4.9799     0.3054 H       
  36 H36            8.5290    -5.0201     0.0147 H       
  37 H37            8.7004    -5.0539     1.7860 H       
  38 H38            6.6858    -4.6717     3.1177 H       
  39 H39            7.9021    -9.3638     0.8872 H       
  40 H40            9.9181   -10.7584     0.6659 H       
  41 H41           12.3346    -7.2385     0.4967 H       
  42 H42           10.3182    -5.8438     0.7136 H       
  43 H43           12.6031   -10.0629    -0.4684 H       
  44 H44            2.8888    -2.5596     0.7886 H       
  45 H45            2.8315    -2.4009    -0.9837 H       
  46 H46            4.6887    -3.8926    -0.2538 H       
  47 H47            5.2997    -2.4390    -1.0805 H       
  48 H48            6.2989    -0.7730     2.0245 H       
  49 H49            6.2416    -0.6143     0.2521 H       
  50 H50            4.4417     0.7187     1.2946 H       
  51 H51            3.8307    -0.7349     2.1213 H       
@<TRIPOS>BOND
   1    1    2 ar
   2    1    3 ar
   3    1   25 1
   4    2    6 ar
   5    2   29 1
   6    3    4 ar
   7    3   30 1
   8    4    5 ar
   9    4   31 1
  10    5    6 ar
  11    5    7 1
  12    6   32 1
  13    7   20 1
  14    7   24 1
  15    8    9 1
  16    8   22 1
  17    8   33 1
  18    8   34 1
  19    9   11 1
  20    9   10 1
  21    9   35 1
  22   10   12 1
  23   10   36 1
  24   10   37 1
  25   11   38 1
  26   12   13 1
  27   13   14 ar
  28   13   18 ar
  29   14   15 ar
  30   14   39 1
  31   15   16 ar
  32   15   40 1
  33   16   17 ar
  34   16   19 1
  35   17   18 ar
  36   17   41 1
  37   18   42 1
  38   19   43 1
  39   20   21 1
  40   20   44 1
  41   20   45 1
  42   21   22 1
  43   21   46 1
  44   21   47 1
  45   22   23 1
  46   23   24 1
  47   23   48 1
  48   23   49 1
  49   24   50 1
  50   24   51 1
  51   25   26 1
  52   25   27 1
  53   25   28 1

#	End of record

