#	Name: ASD08150517
#	Creating user name:	WinNT
#	Creation time:	15. 06. 2019 21:16

#	Modifying user name:	WinNT
#	Modification time:	15. 06. 2019 21:16

#	Program:	/corina/corina34_cracker 3.40 0067  02.08.2006

@<TRIPOS>MOLECULE
ASD08150517
  28   29    0    0    0
SMALL
NO_CHARGES


@<TRIPOS>ATOM
   1 C1             0.1616     1.6091     0.0292 C.2     
   2 C2            -0.1314     0.1657     0.0387 C.ar    
   3 C3             0.9115    -0.7675    -0.0823 C.ar    
   4 C4             0.6235    -2.1250    -0.0721 C.ar    
   5 C5            -0.6849    -2.5543     0.0562 C.ar    
   6 C6            -1.7173    -1.6334     0.1760 C.ar    
   7 C7            -1.4482    -0.2832     0.1740 C.ar    
   8 O8             1.3147     1.9955     0.0096 O.2     
   9 N9            -0.8481     2.5018     0.0366 N.am    
  10 F10           -0.9601    -3.8769     0.0647 F       
  11 C11           -0.5722     3.8692     0.1445 C.ar    
  12 C12           -1.4799     4.8035    -0.3410 C.ar    
  13 C13           -1.2038     6.1531    -0.2326 C.ar    
  14 C14           -0.0262     6.5740     0.3581 C.ar    
  15 C15            0.8783     5.6470     0.8418 C.ar    
  16 C16            0.6060     4.2962     0.7418 C.ar    
  17 Cl17          -2.9578     4.2754    -1.0829 Cl      
  18 N18            2.2245    -0.3336    -0.2120 N.pl3   
  19 H19            1.4216    -2.8467    -0.1649 H       
  20 H20           -2.7360    -1.9781     0.2758 H       
  21 H21           -2.2544     0.4287     0.2723 H       
  22 H22           -1.7661     2.1963    -0.0329 H       
  23 H23           -1.9081     6.8798    -0.6097 H       
  24 H24            0.1876     7.6294     0.4413 H       
  25 H25            1.7968     5.9793     1.3024 H       
  26 H26            1.3112     3.5729     1.1240 H       
  27 H27            2.4163     0.6135    -0.2960 H       
  28 H28            2.9497    -0.9778    -0.2186 H       
@<TRIPOS>BOND
   1    1    2 1
   2    1    8 2
   3    1    9 am
   4    2    3 ar
   5    2    7 ar
   6    3    4 ar
   7    3   18 1
   8    4    5 ar
   9    4   19 1
  10    5    6 ar
  11    5   10 1
  12    6    7 ar
  13    6   20 1
  14    7   21 1
  15    9   11 1
  16    9   22 1
  17   11   12 ar
  18   11   16 ar
  19   12   13 ar
  20   12   17 1
  21   13   14 ar
  22   13   23 1
  23   14   15 ar
  24   14   24 1
  25   15   16 ar
  26   15   25 1
  27   16   26 1
  28   18   27 1
  29   18   28 1

#	End of record

