#	Name: ASD03430575
#	Creating user name:	WinNT
#	Creation time:	15. 06. 2019 20:41

#	Modifying user name:	WinNT
#	Modification time:	15. 06. 2019 20:41

#	Program:	/corina/corina34_cracker 3.40 0067  02.08.2006

@<TRIPOS>MOLECULE
ASD03430575
  57   62    0    0    0
SMALL
NO_CHARGES


@<TRIPOS>ATOM
   1 N1            -0.0157     1.4931     0.4901 N.am    
   2 C2             0.0409     0.2262     0.9342 C.2     
   3 C3             1.4805    -0.0488     1.3136 C.3     
   4 C4             2.1941     1.2488     1.0118 C.ar    
   5 C5             3.5083     1.6473     1.1364 C.ar    
   6 C6             3.8775     2.9324     0.7706 C.ar    
   7 C7             2.9253     3.8082     0.2825 C.ar    
   8 C8             1.6102     3.4110     0.1579 C.ar    
   9 C9             1.2302     2.1205     0.5229 C.ar    
  10 O10           -0.8869    -0.5507     1.0162 O.2     
  11 O11            1.8751    -1.3114     6.7980 O.3     
  12 C12            1.7712    -0.2288     7.7291 C.3     
  13 C13            0.5762     0.6432     7.3205 C.3     
  14 O14            0.8104     1.1316     5.9952 O.3     
  15 C15            1.2439     0.2245     5.0762 C.ar    
  16 C16            1.7775    -0.9947     5.4778 C.ar    
  17 C17            1.1488     0.5265     3.7265 C.ar    
  18 C18            1.5859    -0.3808     2.7798 C.ar    
  19 C19            2.1210    -1.5964     3.1781 C.ar    
  20 C20            2.2166    -1.9031     4.5269 C.ar    
  21 O21            2.5514    -2.4879     2.2459 O.3     
  22 F22            4.4340     0.7872     1.6143 F       
  23 C23           -1.2434     2.1395     0.0198 C.3     
  24 C24           -0.9991     2.7579    -1.3326 C.ar    
  25 C25           -1.5151     4.0066    -1.6250 C.ar    
  26 C26           -1.2910     4.5739    -2.8655 C.ar    
  27 C27           -0.5506     3.8927    -3.8135 C.ar    
  28 C28           -0.0339     2.6444    -3.5208 C.ar    
  29 C29           -0.2543     2.0790    -2.2787 C.ar    
  30 C30           -2.3418     1.1133    -0.0882 C.ar    
  31 C31           -3.4805     1.2356     0.6860 C.ar    
  32 C32           -4.4879     0.2943     0.5870 C.ar    
  33 C33           -4.3569    -0.7691    -0.2865 C.ar    
  34 C34           -3.2186    -0.8909    -1.0612 C.ar    
  35 C35           -2.2130     0.0527    -0.9654 C.ar    
  36 H36            1.8873    -0.8583     0.7075 H       
  37 H37            4.9057     3.2487     0.8668 H       
  38 H38            3.2129     4.8094    -0.0025 H       
  39 H39            0.8729     4.1017    -0.2239 H       
  40 H40            1.6133    -0.6216     8.7335 H       
  41 H41            2.6848     0.3653     7.7056 H       
  42 H42           -0.3363     0.0473     7.3368 H       
  43 H43            0.4805     1.4820     8.0099 H       
  44 H44            0.7326     1.4728     3.4140 H       
  45 H45            2.6336    -2.8498     4.8369 H       
  46 H46            3.4811    -2.3832     2.0014 H       
  47 H47           -1.5391     2.9153     0.7260 H       
  48 H48           -2.0935     4.5388    -0.8843 H       
  49 H49           -1.6947     5.5492    -3.0941 H       
  50 H50           -0.3762     4.3356    -4.7829 H       
  51 H51            0.5443     2.1121    -4.2615 H       
  52 H52            0.1525     1.1053    -2.0488 H       
  53 H53           -3.5828     2.0664     1.3684 H       
  54 H54           -5.3773     0.3895     1.1923 H       
  55 H55           -5.1437    -1.5049    -0.3633 H       
  56 H56           -3.1161    -1.7219    -1.7434 H       
  57 H57           -1.3253    -0.0404    -1.5734 H       
@<TRIPOS>BOND
   1    1    2 am
   2    1    9 1
   3    1   23 1
   4    2    3 1
   5    2   10 2
   6    3    4 1
   7    3   18 1
   8    3   36 1
   9    4    5 ar
  10    4    9 ar
  11    5    6 ar
  12    5   22 1
  13    6    7 ar
  14    6   37 1
  15    7    8 ar
  16    7   38 1
  17    8    9 ar
  18    8   39 1
  19   11   12 1
  20   11   16 1
  21   12   13 1
  22   12   40 1
  23   12   41 1
  24   13   14 1
  25   13   42 1
  26   13   43 1
  27   14   15 1
  28   15   16 ar
  29   15   17 ar
  30   16   20 ar
  31   17   18 ar
  32   17   44 1
  33   18   19 ar
  34   19   20 ar
  35   19   21 1
  36   20   45 1
  37   21   46 1
  38   23   24 1
  39   23   30 1
  40   23   47 1
  41   24   25 ar
  42   24   29 ar
  43   25   26 ar
  44   25   48 1
  45   26   27 ar
  46   26   49 1
  47   27   28 ar
  48   27   50 1
  49   28   29 ar
  50   28   51 1
  51   29   52 1
  52   30   31 ar
  53   30   35 ar
  54   31   32 ar
  55   31   53 1
  56   32   33 ar
  57   32   54 1
  58   33   34 ar
  59   33   55 1
  60   34   35 ar
  61   34   56 1
  62   35   57 1

#	End of record

