#	Name: ASD00451021
#	Creating user name:	WinNT
#	Creation time:	15. 06. 2019 18:36

#	Modifying user name:	WinNT
#	Modification time:	15. 06. 2019 18:36

#	Program:	/corina/corina34_cracker 3.40 0067  02.08.2006

@<TRIPOS>MOLECULE
ASD00451021
  45   48    0    0    0
SMALL
NO_CHARGES


@<TRIPOS>ATOM
   1 C1            -0.0393     1.3881    -0.0047 C.ar    
   2 C2             0.0188     0.0019    -0.0100 C.ar    
   3 N3             1.1438     2.1401    -0.0492 N.am    
   4 C4            -1.2714     2.0315     0.0390 C.ar    
   5 C5            -1.1468    -0.7387     0.0334 C.ar    
   6 C6             2.2536     1.6875     0.5673 C.2     
   7 C7            -2.4367     1.2889     0.0771 C.ar    
   8 C8            -2.3758    -0.0975     0.0824 C.ar    
   9 O9             2.2048     0.6777     1.2430 O.2     
  10 N10            3.4174     2.3541     0.4348 N.am    
  11 O11           -3.5219    -0.8277     0.1199 O.3     
  12 C12            4.5404     1.9558     1.1711 C.ar    
  13 C13           -3.8613    -1.4217     1.2929 C.ar    
  14 C14            4.3806     1.2647     2.3637 C.ar    
  15 C15            5.8183     2.2471     0.7057 C.ar    
  16 C16           -5.0682    -2.1034     1.4273 C.ar    
  17 C17           -3.0094    -1.3714     2.3940 C.ar    
  18 C18            5.4903     0.8725     3.0879 C.ar    
  19 C19            6.9241     1.8517     1.4354 C.ar    
  20 N20           -6.1322    -2.3558     0.5638 N.am    
  21 C21           -5.3829    -2.7018     2.6477 C.ar    
  22 C22           -3.3891    -1.9878     3.5693 C.ar    
  23 C23            6.7595     1.1676     2.6262 C.ar    
  24 C24           -7.0529    -3.0766     1.2322 C.2     
  25 N25           -6.6292    -3.2952     2.4909 N.am    
  26 N26           -4.5420    -2.6221     3.6679 N.ar    
  27 O27           -8.1097    -3.4651     0.7706 O.2     
  28 H28            1.1633     2.9859    -0.5237 H       
  29 H29            3.4774     3.1097    -0.1705 H       
  30 H30           -6.1984    -2.0631    -0.3587 H       
  31 H31           -7.1110    -3.7890     3.1727 H       
  32 F32            5.9788     2.9149    -0.4577 F       
  33 F33           -1.3294     3.3812     0.0447 F       
  34 C34            5.3166     0.1223     4.3833 C.3     
  35 F35            5.2886    -1.2525     4.1259 F       
  36 F36            6.3844     0.4150     5.2385 F       
  37 F37            4.1155     0.5081     4.9881 F       
  38 H38            0.9752    -0.4983    -0.0485 H       
  39 H39           -1.1009    -1.8177     0.0289 H       
  40 H40           -3.3940     1.7876     0.1111 H       
  41 H41            3.3897     1.0337     2.7259 H       
  42 H42           -2.0624    -0.8563     2.3287 H       
  43 H43            7.9170     2.0771     1.0754 H       
  44 H44           -2.7302    -1.9500     4.4242 H       
  45 H45            7.6246     0.8599     3.1948 H       
@<TRIPOS>BOND
   1    1    2 ar
   2    1    3 1
   3    1    4 ar
   4    2    5 ar
   5    2   38 1
   6    3   28 1
   7    3    6 am
   8    4   33 1
   9    4    7 ar
  10    5    8 ar
  11    5   39 1
  12    6    9 2
  13    6   10 am
  14    7    8 ar
  15    7   40 1
  16    8   11 1
  17   10   12 1
  18   10   29 1
  19   11   13 1
  20   12   14 ar
  21   12   15 ar
  22   13   16 ar
  23   13   17 ar
  24   14   18 ar
  25   14   41 1
  26   15   19 ar
  27   15   32 1
  28   16   20 1
  29   16   21 ar
  30   17   22 ar
  31   17   42 1
  32   18   23 ar
  33   18   34 1
  34   19   23 ar
  35   19   43 1
  36   20   30 1
  37   20   24 am
  38   21   26 ar
  39   21   25 1
  40   22   26 ar
  41   22   44 1
  42   23   45 1
  43   24   25 am
  44   24   27 2
  45   25   31 1
  46   34   35 1
  47   34   36 1
  48   34   37 1

#	End of record

