#	Name: ASD05790087
#	Creating user name:	WinNT
#	Creation time:	15. 06. 2019 21:03

#	Modifying user name:	WinNT
#	Modification time:	15. 06. 2019 21:03

#	Program:	/corina/corina34_cracker 3.40 0067  02.08.2006

@<TRIPOS>MOLECULE
ASD05790087
  81   86    0    0    0
SMALL
NO_CHARGES


@<TRIPOS>ATOM
   1 C1            -0.2594     1.5732    -0.0236 C.3     
   2 C2            -0.2669     0.0426    -0.0299 C.3     
   3 C3             0.4692    -0.4558    -1.2730 C.3     
   4 C4             1.9204     0.0314    -1.2461 C.3     
   5 C5             1.9332     1.5702    -1.2387 C.3     
   6 C6             1.1856     2.0757    -0.0061 C.3     
   7 C7             2.6385    -0.5111    -2.4826 C.3     
   8 C8             2.0017     0.0415    -3.7697 C.3     
   9 C9             2.1066     1.5527    -3.7132 C.3     
  10 C10            1.2574     2.0334    -2.5075 C.3     
  11 C11            1.4398     2.3121    -4.8691 C.3     
  12 C12            1.1387     3.6897    -4.2807 C.2     
  13 C13            1.1600     3.5321    -2.7548 C.3     
  14 C14            2.4172     2.4160    -6.0263 C.3     
  15 C15            1.8705     3.1317    -7.2156 C.3     
  16 C16            1.8904     4.6377    -7.1333 C.3     
  17 C17            0.7438     5.1852    -6.3041 C.3     
  18 C18            0.8500     4.7682    -4.8820 C.2     
  19 C19            1.7864     5.2202    -8.5705 C.3     
  20 C20            3.0891     6.0131    -8.7244 C.3     
  21 C21            4.0029     5.2628    -7.7152 C.3     
  22 O22            3.1545     5.0887    -6.5874 O.3     
  23 N23            3.7353     5.9116   -10.0267 N.3     
  24 C24            5.0053     6.6616    -9.9969 C.3     
  25 C25            5.9522     6.1340    -8.9211 C.3     
  26 C26            5.2575     6.0938    -7.5463 C.3     
  27 C27            3.3784     2.0712    -1.2035 C.3     
  28 C28            0.5409     5.8934    -3.9283 C.3     
  29 C29            7.1775     7.0466    -8.8385 C.3     
  30 C30            1.7138     4.0952    -9.6049 C.3     
  31 O31            0.4016    -0.4510     1.1607 O.3     
  32 O32           -1.5463    -0.4295     2.2040 O.2     
  33 C33           -0.3602    -0.6555     2.2468 C.2     
  34 C34            0.2640    -1.1670     3.5196 C.3     
  35 H35           -0.7619     1.9427    -0.9176 H       
  36 H36           -0.7809     1.9355     0.8623 H       
  37 H37           -1.2958    -0.3167    -0.0470 H       
  38 H38            0.4530    -1.5455    -1.2912 H       
  39 H39           -0.0255    -0.0720    -2.1653 H       
  40 H40            2.4121    -0.3405    -0.3472 H       
  41 H41            1.1891     3.1657    -0.0032 H       
  42 H42            1.6836     1.7124     0.8928 H       
  43 H43            3.6874    -0.2168    -2.4463 H       
  44 H44            2.5718    -1.5990    -2.4878 H       
  45 H45            2.5389    -0.3351    -4.6402 H       
  46 H46            0.9543    -0.2557    -3.8223 H       
  47 H47            3.1465     1.8566    -3.5930 H       
  48 H48            0.2594     1.5994    -2.5687 H       
  49 H49            0.5182     1.8157    -5.1728 H       
  50 H50            0.2416     3.9277    -2.3212 H       
  51 H51            2.0272     4.0415    -2.3345 H       
  52 H52            3.3080     2.9421    -5.6830 H       
  53 H53            2.7064     1.4095    -6.3287 H       
  54 H54            2.4459     2.8296    -8.0906 H       
  55 H55            0.8392     2.8111    -7.3632 H       
  56 H56            0.7541     6.2738    -6.3576 H       
  57 H57           -0.1978     4.8188    -6.7131 H       
  58 H58            0.9209     5.8771    -8.6574 H       
  59 H59            2.9495     7.0533    -8.4301 H       
  60 H60            4.2735     4.2886    -8.1226 H       
  61 H61            3.8907     4.9471   -10.2790 H       
  62 H62            5.4904     6.5768   -10.9693 H       
  63 H63            4.7926     7.7120    -9.7985 H       
  64 H64            6.2738     5.1277    -9.1893 H       
  65 H65            4.9958     7.1039    -7.2313 H       
  66 H66            5.9147     5.6311    -6.8100 H       
  67 H67            3.9102     1.7088    -2.0833 H       
  68 H68            3.3851     3.1612    -1.1984 H       
  69 H69            3.8697     1.7006    -0.3038 H       
  70 H70            0.2999     6.7934    -4.4940 H       
  71 H71           -0.3095     5.6177    -3.3046 H       
  72 H72            1.4086     6.0828    -3.2964 H       
  73 H73            6.8607     8.0579    -8.5834 H       
  74 H74            7.8568     6.6743    -8.0717 H       
  75 H75            7.6877     7.0578    -9.8016 H       
  76 H76            0.9062     3.4118    -9.3424 H       
  77 H77            1.5245     4.5198   -10.5908 H       
  78 H78            2.6590     3.5525    -9.6184 H       
  79 H79            0.5877    -0.3239     4.1299 H       
  80 H80           -0.4682    -1.7557     4.0722 H       
  81 H81            1.1239    -1.7914     3.2771 H       
@<TRIPOS>BOND
   1    1    2 1
   2    1    6 1
   3    1   35 1
   4    1   36 1
   5    2    3 1
   6    2   31 1
   7    2   37 1
   8    3    4 1
   9    3   38 1
  10    3   39 1
  11    4    5 1
  12    4    7 1
  13    4   40 1
  14    5    6 1
  15    5   27 1
  16    5   10 1
  17    6   41 1
  18    6   42 1
  19    7    8 1
  20    7   43 1
  21    7   44 1
  22    8    9 1
  23    8   45 1
  24    8   46 1
  25    9   10 1
  26    9   11 1
  27    9   47 1
  28   10   13 1
  29   10   48 1
  30   11   12 1
  31   11   14 1
  32   11   49 1
  33   12   13 1
  34   12   18 2
  35   13   50 1
  36   13   51 1
  37   14   15 1
  38   14   52 1
  39   14   53 1
  40   15   16 1
  41   15   54 1
  42   15   55 1
  43   16   17 1
  44   16   22 1
  45   16   19 1
  46   17   18 1
  47   17   56 1
  48   17   57 1
  49   18   28 1
  50   19   30 1
  51   19   20 1
  52   19   58 1
  53   20   21 1
  54   20   23 1
  55   20   59 1
  56   21   22 1
  57   21   26 1
  58   21   60 1
  59   23   24 1
  60   23   61 1
  61   24   25 1
  62   24   62 1
  63   24   63 1
  64   25   26 1
  65   25   29 1
  66   25   64 1
  67   26   65 1
  68   26   66 1
  69   27   67 1
  70   27   68 1
  71   27   69 1
  72   28   70 1
  73   28   71 1
  74   28   72 1
  75   29   73 1
  76   29   74 1
  77   29   75 1
  78   30   76 1
  79   30   77 1
  80   30   78 1
  81   31   33 1
  82   32   33 2
  83   33   34 1
  84   34   79 1
  85   34   80 1
  86   34   81 1

#	End of record

