#	Name: ASD01880461
#	Creating user name:	WinNT
#	Creation time:	15. 06. 2019 19:40

#	Modifying user name:	WinNT
#	Modification time:	15. 06. 2019 19:40

#	Program:	/corina/corina34_cracker 3.40 0067  02.08.2006

@<TRIPOS>MOLECULE
ASD01880461
  43   47    0    0    0
SMALL
NO_CHARGES


@<TRIPOS>ATOM
   1 C1            -0.0169     1.3928     0.0097 C.ar    
   2 C2             0.0021    -0.0041     0.0020 C.ar    
   3 C3             1.2136    -0.6908    -0.0128 C.ar    
   4 C4             2.4023     0.0193    -0.0203 C.ar    
   5 C5             2.3728     1.4246    -0.0130 C.ar    
   6 C6             1.1522     2.1000     0.0023 C.ar    
   7 N7             3.6286    -0.6377    -0.0346 N.pl3   
   8 C8             4.7929     0.0687    -0.0416 C.2     
   9 N9             4.8015     1.4562    -0.0349 N.am    
  10 C10            3.6501     2.1585    -0.0210 C.2     
  11 N11            3.9494    -2.0026    -0.0437 N.2     
  12 C12            5.2607    -2.1201    -0.0558 C.2     
  13 C13            5.8180    -0.8301    -0.0548 C.2     
  14 C14            6.0811     2.1694    -0.0430 C.3     
  15 O15            3.6661     3.3751    -0.0155 O.2     
  16 C16           -1.2740    -0.7593     0.0101 C.ar    
  17 C17            6.0196    -3.3953    -0.0684 C.ar    
  18 C18           -2.4900    -0.0777     0.0254 C.ar    
  19 C19           -3.6746    -0.7851     0.0325 C.ar    
  20 C20           -3.6569    -2.1696     0.0248 C.ar    
  21 C21           -2.4519    -2.8512     0.0097 C.ar    
  22 C22           -1.2618    -2.1532    -0.0033 C.ar    
  23 Cl23          -5.1509    -3.0537     0.0349 Cl      
  24 C24            5.3485    -4.6208    -0.0686 C.ar    
  25 C25            7.4129    -3.3899    -0.0860 C.ar    
  26 N26            8.0876    -4.5210    -0.0976 N.ar    
  27 C27            7.4820    -5.6930    -0.0932 C.ar    
  28 C28            6.1022    -5.7822    -0.0811 C.ar    
  29 H29           -0.9612     1.9168     0.0170 H       
  30 H30            1.2258    -1.7707    -0.0180 H       
  31 H31            1.1313     3.1797     0.0083 H       
  32 H32            6.8715    -0.5927    -0.0627 H       
  33 H33            6.3891     2.3513    -1.0726 H       
  34 H34            5.9699     3.1212     0.4765 H       
  35 H35            6.8364     1.5664     0.4610 H       
  36 H36           -2.5048     1.0021     0.0321 H       
  37 H37           -4.6171    -0.2580     0.0443 H       
  38 H38           -2.4435    -3.9312     0.0038 H       
  39 H39           -0.3224    -2.6858    -0.0152 H       
  40 H40            4.2693    -4.6612    -0.0590 H       
  41 H41            7.9443    -2.4497    -0.0905 H       
  42 H42            8.0731    -6.5968    -0.1035 H       
  43 H43            5.6177    -6.7474    -0.0775 H       
@<TRIPOS>BOND
   1    1    2 ar
   2    1    6 ar
   3    1   29 1
   4    2    3 ar
   5    2   16 1
   6    3    4 ar
   7    3   30 1
   8    4    5 ar
   9    4    7 1
  10    5    6 ar
  11    5   10 1
  12    6   31 1
  13    7    8 1
  14    7   11 1
  15    8    9 1
  16    8   13 2
  17    9   10 am
  18    9   14 1
  19   10   15 2
  20   11   12 2
  21   12   13 1
  22   12   17 1
  23   13   32 1
  24   14   33 1
  25   14   34 1
  26   14   35 1
  27   16   18 ar
  28   16   22 ar
  29   17   24 ar
  30   17   25 ar
  31   18   19 ar
  32   18   36 1
  33   19   20 ar
  34   19   37 1
  35   20   21 ar
  36   20   23 1
  37   21   22 ar
  38   21   38 1
  39   22   39 1
  40   24   28 ar
  41   24   40 1
  42   25   26 ar
  43   25   41 1
  44   26   27 ar
  45   27   28 ar
  46   27   42 1
  47   28   43 1

#	End of record

