#	Name: ASD04882282
#	Creating user name:	WinNT
#	Creation time:	15. 06. 2019 20:54

#	Modifying user name:	WinNT
#	Modification time:	15. 06. 2019 20:54

#	Program:	/corina/corina34_cracker 3.40 0067  02.08.2006

@<TRIPOS>MOLECULE
ASD04882282
  77   82    0    0    0
SMALL
NO_CHARGES


@<TRIPOS>ATOM
   1 N1            -0.0169     1.3970     0.0097 N.am    
   2 C2             0.1091     0.0021    -0.0337 C.ar    
   3 C3            -1.0285    -0.8057     0.0463 C.ar    
   4 C4            -0.9050    -2.1898     0.0034 C.ar    
   5 C5             0.3382    -2.7698    -0.1177 C.ar    
   6 C6             1.4801    -1.9677    -0.1978 C.ar    
   7 C7             1.3580    -0.5758    -0.1615 C.ar    
   8 N8            -2.2875    -0.2235     0.1697 N.3     
   9 C9            -3.1537    -0.5984    -0.9567 C.3     
  10 C10           -2.9103    -0.5823     1.4515 C.3     
  11 C11           -4.2537     0.1391     1.5825 C.3     
  12 N12           -5.1200    -0.2357     0.4561 N.3     
  13 C13           -4.4971     0.1231    -0.8257 C.3     
  14 C14            2.8118    -2.5893    -0.3264 C.2     
  15 O15            3.8047    -1.8907    -0.3960 O.2     
  16 C16            0.9214     2.1766    -0.5632 C.2     
  17 C17            0.7449     3.6396    -0.5952 C.2     
  18 O18            1.9138     1.6728    -1.0539 O.2     
  19 N19           -0.3074     4.3382    -0.0892 N.2     
  20 C20            1.6067     4.5465    -1.1312 C.2     
  21 O21            1.0631     5.7601    -0.9457 O.3     
  22 C22           -0.1051     5.6031    -0.3071 C.2     
  23 N23            2.9280    -3.9314    -0.3668 N.am    
  24 C24           -6.3827     0.3482     0.5799 C.ar    
  25 C25           -7.5150    -0.4522     0.6596 C.ar    
  26 C26           -6.5085     1.7310     0.6292 C.ar    
  27 C27           -7.7584     2.3050     0.7516 C.ar    
  28 C28           -8.8843     1.5051     0.8254 C.ar    
  29 C29           -8.7622     0.1285     0.7819 C.ar    
  30 C30           -7.3829    -1.9527     0.6123 C.3     
  31 C31            4.2505    -4.5487    -0.4946 C.3     
  32 C32           -1.0367     6.7175     0.0942 C.3     
  33 C33           -0.4935     7.7834     1.0480 C.3     
  34 C34           -0.7238     8.1218    -0.4263 C.3     
  35 C35            4.1049    -6.0485    -0.5160 C.ar    
  36 C36            3.7296    -6.6928    -1.6857 C.ar    
  37 C37            4.3505    -6.7834     0.6278 C.ar    
  38 C38            4.2180    -8.1594     0.6086 C.ar    
  39 C39            3.8390    -8.8036    -0.5549 C.ar    
  40 C40            3.5969    -8.0739    -1.7023 C.ar    
  41 O41            3.4920    -5.9726    -2.8134 O.3     
  42 C42            3.1094    -6.7025    -3.9808 C.3     
  43 H43           -0.7815     1.8014     0.4487 H       
  44 H44           -1.7859    -2.8115     0.0654 H       
  45 H45            0.4310    -3.8453    -0.1504 H       
  46 H46            2.2386     0.0465    -0.2231 H       
  47 H47           -2.6766    -0.3112    -1.8937 H       
  48 H48           -3.3172    -1.6760    -0.9468 H       
  49 H49           -3.0710    -1.6598     1.4887 H       
  50 H50           -2.2556    -0.2835     2.2702 H       
  51 H51           -4.7308    -0.1481     2.5195 H       
  52 H52           -4.0902     1.2167     1.5726 H       
  53 H53           -4.3365     1.2005    -0.8629 H       
  54 H54           -5.1518    -0.1758    -1.6443 H       
  55 H55            2.5488     4.3310    -1.6134 H       
  56 H56            2.1360    -4.4887    -0.3113 H       
  57 H57           -5.6297     2.3561     0.5723 H       
  58 H58           -7.8569     3.3798     0.7900 H       
  59 H59           -9.8606     1.9566     0.9218 H       
  60 H60           -9.6434    -0.4932     0.8398 H       
  61 H61           -7.2617    -2.3389     1.6243 H       
  62 H62           -8.2789    -2.3824     0.1643 H       
  63 H63           -6.5125    -2.2221     0.0139 H       
  64 H64            4.7188    -4.2159    -1.4209 H       
  65 H65            4.8714    -4.2560     0.3521 H       
  66 H66           -2.0859     6.4399     0.1947 H       
  67 H67           -1.1854     8.2073     1.7757 H       
  68 H68            0.5377     7.6786     1.3852 H       
  69 H69            0.1560     8.2396    -1.0590 H       
  70 H70           -1.5672     8.7684    -0.6684 H       
  71 H71            4.6467    -6.2826     1.5377 H       
  72 H72            4.4112    -8.7322     1.5036 H       
  73 H73            3.7361    -9.8787    -0.5674 H       
  74 H74            3.3005    -8.5775    -2.6106 H       
  75 H75            2.9507    -6.0094    -4.8069 H       
  76 H76            3.8988    -7.4067    -4.2439 H       
  77 H77            2.1871    -7.2483    -3.7821 H       
@<TRIPOS>BOND
   1    1    2 1
   2    1   16 am
   3    1   43 1
   4    2    3 ar
   5    2    7 ar
   6    3    4 ar
   7    3    8 1
   8    4    5 ar
   9    4   44 1
  10    5    6 ar
  11    5   45 1
  12    6    7 ar
  13    6   14 1
  14    7   46 1
  15    8    9 1
  16    8   10 1
  17    9   13 1
  18    9   47 1
  19    9   48 1
  20   10   11 1
  21   10   49 1
  22   10   50 1
  23   11   12 1
  24   11   51 1
  25   11   52 1
  26   12   13 1
  27   12   24 1
  28   13   53 1
  29   13   54 1
  30   14   15 2
  31   14   23 am
  32   16   18 2
  33   16   17 1
  34   17   19 1
  35   17   20 2
  36   19   22 2
  37   20   21 1
  38   20   55 1
  39   21   22 1
  40   22   32 1
  41   23   31 1
  42   23   56 1
  43   24   25 ar
  44   24   26 ar
  45   25   30 1
  46   25   29 ar
  47   26   27 ar
  48   26   57 1
  49   27   28 ar
  50   27   58 1
  51   28   29 ar
  52   28   59 1
  53   29   60 1
  54   30   61 1
  55   30   62 1
  56   30   63 1
  57   31   35 1
  58   31   64 1
  59   31   65 1
  60   32   33 1
  61   32   34 1
  62   32   66 1
  63   33   34 1
  64   33   67 1
  65   33   68 1
  66   34   69 1
  67   34   70 1
  68   35   36 ar
  69   35   37 ar
  70   36   41 1
  71   36   40 ar
  72   37   38 ar
  73   37   71 1
  74   38   39 ar
  75   38   72 1
  76   39   40 ar
  77   39   73 1
  78   40   74 1
  79   41   42 1
  80   42   75 1
  81   42   76 1
  82   42   77 1

#	End of record

