#	Name: ASD07300323
#	Creating user name:	WinNT
#	Creation time:	15. 06. 2019 21:09

#	Modifying user name:	WinNT
#	Modification time:	15. 06. 2019 21:09

#	Program:	/corina/corina34_cracker 3.40 0067  02.08.2006

@<TRIPOS>MOLECULE
ASD07300323
  53   57    0    0    0
SMALL
NO_CHARGES


@<TRIPOS>ATOM
   1 C1            -0.3569     1.3719     0.0813 C.ar    
   2 C2            -0.3485    -0.0241     0.0011 C.ar    
   3 C3             0.8517    -0.7056     0.1362 C.ar    
   4 C4             2.0062     0.0343     0.3477 C.ar    
   5 C5             1.9244     1.4123     0.4162 C.ar    
   6 N6             0.7693     2.0354     0.2838 N.ar    
   7 C7            -2.4390     0.6742    -0.2532 C.2     
   8 N8            -1.6785     1.7714    -0.0818 N.am    
   9 N9            -1.6635    -0.4261    -0.2136 N.am    
  10 O10           -3.6439     0.6764    -0.4225 O.2     
  11 C11           -2.1415     3.0955    -0.0699 C.ar    
  12 C12           -3.4931     3.3601    -0.2452 C.ar    
  13 C13           -3.9484     4.6636    -0.2329 C.ar    
  14 C14           -3.0555     5.7088    -0.0455 C.ar    
  15 C15           -1.7047     5.4449     0.1293 C.ar    
  16 C16           -1.2492     4.1415     0.1229 C.ar    
  17 O17           -3.5044     6.9921    -0.0334 O.3     
  18 C18           -5.4665     8.6517     2.3765 C.ar    
  19 C19           -5.2008     7.4097     2.9806 C.ar    
  20 C20           -5.7224     7.1492     4.2506 C.ar    
  21 C21           -6.4813     8.1323     4.8589 C.ar    
  22 C22           -6.7000     9.3312     4.2009 C.ar    
  23 N23           -6.1990     9.5571     3.0031 N.ar    
  24 C24           -4.2256     7.4027     1.0348 C.2     
  25 N25           -4.8371     8.6179     1.1473 N.pl3   
  26 N26           -4.4359     6.6962     2.1151 N.2     
  27 C27           -4.8275     9.6893     0.1482 C.3     
  28 C28           -2.1256    -1.8084    -0.3622 C.3     
  29 C29           -3.0360    -2.1709     0.8128 C.3     
  30 C30           -2.9037    -1.9479    -1.6722 C.3     
  31 C31            0.9006    -2.2097     0.0561 C.3     
  32 H32            2.9592    -0.4616     0.4580 H       
  33 H33            2.8223     1.9893     0.5808 H       
  34 H34           -4.1881     2.5465    -0.3915 H       
  35 H35           -4.9998     4.8695    -0.3696 H       
  36 H36           -1.0099     6.2589     0.2745 H       
  37 H37           -0.1983     3.9358     0.2638 H       
  38 H38           -5.5381     6.2060     4.7434 H       
  39 H39           -6.9008     7.9662     5.8401 H       
  40 H40           -7.2935    10.0964     4.6790 H       
  41 H41           -3.9742    10.3438     0.3255 H       
  42 H42           -4.7518     9.2555    -0.8490 H       
  43 H43           -5.7496    10.2656     0.2246 H       
  44 H44           -1.2665    -2.4791    -0.3767 H       
  45 H45           -3.8951    -1.5001     0.8272 H       
  46 H46           -3.3798    -3.1993     0.7022 H       
  47 H47           -2.4817    -2.0715     1.7460 H       
  48 H48           -3.7627    -1.2772    -1.6578 H       
  49 H49           -2.2551    -1.6897    -2.5093 H       
  50 H50           -3.2475    -2.9763    -1.7828 H       
  51 H51            0.9355    -2.5169    -0.9892 H       
  52 H52            1.7902    -2.5722     0.5712 H       
  53 H53            0.0116    -2.6278     0.5282 H       
@<TRIPOS>BOND
   1    1    2 ar
   2    1    6 ar
   3    1    8 1
   4    2    3 ar
   5    2    9 1
   6    3    4 ar
   7    3   31 1
   8    4    5 ar
   9    4   32 1
  10    5    6 ar
  11    5   33 1
  12    7    8 am
  13    7    9 am
  14    7   10 2
  15    8   11 1
  16    9   28 1
  17   11   12 ar
  18   11   16 ar
  19   12   13 ar
  20   12   34 1
  21   13   14 ar
  22   13   35 1
  23   14   15 ar
  24   14   17 1
  25   15   16 ar
  26   15   36 1
  27   16   37 1
  28   17   24 1
  29   18   19 ar
  30   18   23 ar
  31   18   25 1
  32   19   20 ar
  33   19   26 1
  34   20   21 ar
  35   20   38 1
  36   21   22 ar
  37   21   39 1
  38   22   23 ar
  39   22   40 1
  40   24   25 1
  41   24   26 2
  42   25   27 1
  43   27   41 1
  44   27   42 1
  45   27   43 1
  46   28   29 1
  47   28   30 1
  48   28   44 1
  49   29   45 1
  50   29   46 1
  51   29   47 1
  52   30   48 1
  53   30   49 1
  54   30   50 1
  55   31   51 1
  56   31   52 1
  57   31   53 1

#	End of record

