#	Name: ASD08178103
#	Creating user name:	WinNT
#	Creation time:	15. 06. 2019 21:18

#	Modifying user name:	WinNT
#	Modification time:	15. 06. 2019 21:18

#	Program:	/corina/corina34_cracker 3.40 0067  02.08.2006

@<TRIPOS>MOLECULE
ASD08178103
 132  139    0    0    0
SMALL
NO_CHARGES


@<TRIPOS>ATOM
   1 C1            -0.0184     1.5028     0.0103 C.2     
   2 C2             0.0021    -0.0041     0.0020 C.3     
   3 C3             0.0221    -0.5218     1.4416 C.3     
   4 C4             0.0429    -2.0516     1.4332 C.3     
   5 C5             0.0630    -2.5693     2.8728 C.3     
   6 C6             0.0834    -4.0761     2.8645 C.2     
   7 N7             1.1396    -4.8258     2.8513 N.2     
   8 N8             0.9467    -6.0734     2.8463 N.2     
   9 C9            -0.2824    -6.4936     2.8547 C.2     
  10 S10           -1.3267    -5.1359     2.8788 S.3     
  11 N11           -0.6838    -7.8252     2.8506 N.am    
  12 N12            1.0171     2.2809     0.0046 N.2     
  13 C13            0.2391    -8.8073     2.8374 C.2     
  14 O14            1.4197    -8.5298     2.8290 O.2     
  15 C15           -0.1960   -10.2501     2.8329 C.3     
  16 C16           -1.0315   -10.5191     1.6079 C.ar    
  17 N17            0.7904     3.5228     0.0134 N.2     
  18 C18           -0.4495     3.9094     0.0274 C.2     
  19 S19           -1.4568     2.5237     0.0218 S.3     
  20 C20           -1.2602   -10.5742    -0.7748 C.ar    
  21 C21           -2.3359   -10.9563     1.7432 C.ar    
  22 C22           -3.1022   -11.2030     0.6195 C.ar    
  23 C23           -2.5643   -11.0122    -0.6395 C.ar    
  24 C24           -0.4952   -10.3232     0.3489 C.ar    
  25 N25           -0.8870     5.2295     0.0390 N.am    
  26 C26            0.0089     6.2364     0.0358 C.2     
  27 O27            1.1967     5.9912     0.0228 O.2     
  28 C28           -0.4651     7.6668     0.0485 C.3     
  29 C29           -1.2853     7.9133     1.2885 C.ar    
  30 C30            0.7437     8.6047     0.0418 C.3     
  31 C31           -2.6033     8.3148     1.1769 C.ar    
  32 C32           -3.3556     8.5409     2.3143 C.ar    
  33 C33           -2.7901     8.3651     3.5634 C.ar    
  34 C34           -1.4723     7.9627     3.6750 C.ar    
  35 C35           -0.7212     7.7324     2.5375 C.ar    
  36 C36            1.0378   -11.1548     2.8175 C.3     
  37 O37            0.6227   -12.5414     2.9325 O.3     
  38 C38            1.5923   -13.4696     2.9345 C.2     
  39 C39            1.2375   -14.9296     3.0507 C.3     
  40 O40            2.7496   -13.1345     2.8432 O.2     
  41 C41            2.5172   -15.7686     3.0283 C.3     
  42 C42            0.4910   -15.1699     4.3649 C.3     
  43 C43            0.1017   -16.6482     4.4634 C.3     
  44 N44            1.3099   -17.4675     4.2973 N.am    
  45 C45            2.1509   -17.2538     3.1117 C.3     
  46 O46            0.2890     9.9795    -0.0653 O.3     
  47 C47            1.2328    10.9338    -0.0846 C.2     
  48 O48            2.4003    10.6304    -0.0143 O.2     
  49 C49            0.8364    12.3836    -0.1940 C.3     
  50 C50            2.0930    13.2571    -0.1945 C.3     
  51 C51            1.6849    14.7317    -0.2709 C.3     
  52 N52            0.8171    14.9222    -1.4411 N.am    
  53 C53           -0.3712    14.0703    -1.5856 C.3     
  54 C54            0.0599    12.6031    -1.4944 C.3     
  55 C55            1.1054    15.8609    -2.3643 C.2     
  56 O56            2.0910    16.5595    -2.2332 O.2     
  57 O57            0.3014    16.0246    -3.4317 O.3     
  58 C58            0.6733    17.0544    -4.3854 C.3     
  59 C59           -0.3358    17.0911    -5.5041 C.ar    
  60 C60           -1.4467    17.9078    -5.4063 C.ar    
  61 C61           -2.3724    17.9415    -6.4325 C.ar    
  62 C62           -2.1867    17.1587    -7.5566 C.ar    
  63 C63           -1.0753    16.3427    -7.6548 C.ar    
  64 C64           -0.1475    16.3123    -6.6306 C.ar    
  65 C65            1.6407   -18.3972     5.2153 C.2     
  66 O66            0.9371   -18.5641     6.1918 O.2     
  67 O67            2.7509   -19.1409     5.0504 O.3     
  68 C68            3.0452   -20.1229     6.0787 C.3     
  69 C69            4.3151   -20.8539     5.7264 C.ar    
  70 C70            5.5345   -20.3713     6.1636 C.ar    
  71 C71            4.2601   -22.0102     4.9708 C.ar    
  72 C72            5.4249   -22.6807     4.6477 C.ar    
  73 C73            6.6448   -22.1947     5.0797 C.ar    
  74 C74            6.6993   -21.0418     5.8404 C.ar    
  75 H75           -0.8875    -0.3767    -0.5057 H       
  76 H76            0.8922    -0.3525    -0.5218 H       
  77 H77            0.9118    -0.1491     1.9494 H       
  78 H78           -0.8680    -0.1733     1.9655 H       
  79 H79           -0.8467    -2.4242     0.9255 H       
  80 H80            0.9330    -2.4000     0.9094 H       
  81 H81            0.9526    -2.1967     3.3806 H       
  82 H82           -0.8271    -2.2209     3.3967 H       
  83 H83           -1.6281    -8.0470     2.8573 H       
  84 H84           -0.7854   -10.4546     3.7267 H       
  85 H85           -0.8413   -10.4212    -1.7584 H       
  86 H86           -2.7561   -11.1054     2.7269 H       
  87 H87           -4.1211   -11.5453     0.7253 H       
  88 H88           -3.1630   -11.2050    -1.5174 H       
  89 H89            0.5236    -9.9810     0.2432 H       
  90 H90           -1.8369     5.4256     0.0495 H       
  91 H91           -1.0758     7.8550    -0.8345 H       
  92 H92            1.3062     8.4791     0.9670 H       
  93 H93            1.3838     8.3665    -0.8077 H       
  94 H94           -3.0452     8.4521     0.2010 H       
  95 H95           -4.3852     8.8552     2.2271 H       
  96 H96           -3.3776     8.5424     4.4520 H       
  97 H97           -1.0303     7.8257     4.6508 H       
  98 H98            0.3083     7.4181     2.6247 H       
  99 H99            1.5798   -11.0141     1.8823 H       
 100 H100           1.6864   -10.8989     3.6553 H       
 101 H101           0.6007   -15.2163     2.2138 H       
 102 H102           3.0602   -15.5793     2.1023 H       
 103 H103           3.1433   -15.5000     3.8791 H       
 104 H104           1.1362   -14.9069     5.2031 H       
 105 H105          -0.4083   -14.5544     4.3902 H       
 106 H106          -0.3419   -16.8450     5.4395 H       
 107 H107          -0.6149   -16.8905     3.6786 H       
 108 H108           1.6015   -17.5454     2.2166 H       
 109 H109           3.0594   -17.8501     3.1958 H       
 110 H110           0.2072    12.6530     0.6543 H       
 111 H111           2.6576    13.0829     0.7214 H       
 112 H112           2.7107    13.0055    -1.0566 H       
 113 H113           1.1440    15.0085     0.6340 H       
 114 H114           2.5752    15.3525    -0.3713 H       
 115 H115          -1.0797    14.2932    -0.7878 H       
 116 H116          -0.8376    14.2547    -2.5533 H       
 117 H117           0.6968    12.3576    -2.3443 H       
 118 H118          -0.8225    11.9634    -1.5037 H       
 119 H119           0.6959    18.0223    -3.8846 H       
 120 H120           1.6597    16.8330    -4.7929 H       
 121 H121          -1.5918    18.5194    -4.5280 H       
 122 H122          -3.2407    18.5790    -6.3557 H       
 123 H123          -2.9103    17.1845    -8.3580 H       
 124 H124          -0.9305    15.7309    -8.5330 H       
 125 H125           0.7209    15.6748    -6.7073 H       
 126 H126           3.1700   -19.6191     7.0372 H       
 127 H127           2.2230   -20.8352     6.1469 H       
 128 H128           5.5771   -19.4701     6.7573 H       
 129 H129           3.3071   -22.3899     4.6333 H       
 130 H130           5.3819   -23.5845     4.0580 H       
 131 H131           7.5548   -22.7188     4.8275 H       
 132 H132           7.6523   -20.6621     6.1779 H       
@<TRIPOS>BOND
   1    1    2 1
   2    1   12 2
   3    1   19 1
   4    2    3 1
   5    2   75 1
   6    2   76 1
   7    3    4 1
   8    3   77 1
   9    3   78 1
  10    4    5 1
  11    4   79 1
  12    4   80 1
  13    5    6 1
  14    5   81 1
  15    5   82 1
  16    6    7 2
  17    6   10 1
  18    7    8 1
  19    8    9 2
  20    9   10 1
  21    9   11 1
  22   11   13 am
  23   11   83 1
  24   12   17 1
  25   13   14 2
  26   13   15 1
  27   15   16 1
  28   15   36 1
  29   15   84 1
  30   16   21 ar
  31   16   24 ar
  32   17   18 2
  33   18   19 1
  34   18   25 1
  35   20   24 ar
  36   20   23 ar
  37   20   85 1
  38   21   22 ar
  39   21   86 1
  40   22   23 ar
  41   22   87 1
  42   23   88 1
  43   24   89 1
  44   25   26 am
  45   25   90 1
  46   26   27 2
  47   26   28 1
  48   28   29 1
  49   28   30 1
  50   28   91 1
  51   29   31 ar
  52   29   35 ar
  53   30   46 1
  54   30   92 1
  55   30   93 1
  56   31   32 ar
  57   31   94 1
  58   32   33 ar
  59   32   95 1
  60   33   34 ar
  61   33   96 1
  62   34   35 ar
  63   34   97 1
  64   35   98 1
  65   36   37 1
  66   36   99 1
  67   36  100 1
  68   37   38 1
  69   38   39 1
  70   38   40 2
  71   39   41 1
  72   39   42 1
  73   39  101 1
  74   41   45 1
  75   41  102 1
  76   41  103 1
  77   42   43 1
  78   42  104 1
  79   42  105 1
  80   43   44 1
  81   43  106 1
  82   43  107 1
  83   44   45 1
  84   44   65 am
  85   45  108 1
  86   45  109 1
  87   46   47 1
  88   47   48 2
  89   47   49 1
  90   49   50 1
  91   49   54 1
  92   49  110 1
  93   50   51 1
  94   50  111 1
  95   50  112 1
  96   51   52 1
  97   51  113 1
  98   51  114 1
  99   52   53 1
 100   52   55 am
 101   53   54 1
 102   53  115 1
 103   53  116 1
 104   54  117 1
 105   54  118 1
 106   55   56 2
 107   55   57 1
 108   57   58 1
 109   58   59 1
 110   58  119 1
 111   58  120 1
 112   59   60 ar
 113   59   64 ar
 114   60   61 ar
 115   60  121 1
 116   61   62 ar
 117   61  122 1
 118   62   63 ar
 119   62  123 1
 120   63   64 ar
 121   63  124 1
 122   64  125 1
 123   65   66 2
 124   65   67 1
 125   67   68 1
 126   68   69 1
 127   68  126 1
 128   68  127 1
 129   69   70 ar
 130   69   71 ar
 131   70   74 ar
 132   70  128 1
 133   71   72 ar
 134   71  129 1
 135   72   73 ar
 136   72  130 1
 137   73   74 ar
 138   73  131 1
 139   74  132 1

#	End of record

