#	Name: ASD01180087
#	Creating user name:	WinNT
#	Creation time:	15. 06. 2019 19:06

#	Modifying user name:	WinNT
#	Modification time:	15. 06. 2019 19:06

#	Program:	/corina/corina34_cracker 3.40 0067  02.08.2006

@<TRIPOS>MOLECULE
ASD01180087
  26   27    0    0    0
SMALL
NO_CHARGES


@<TRIPOS>ATOM
   1 C1            -0.0173     1.4248     0.0099 C.3     
   2 O2             0.0021    -0.0041     0.0020 O.3     
   3 C3             1.3965     1.9464    -0.0008 C.ar    
   4 C4             2.0324     2.1917    -1.2040 C.ar    
   5 C5             3.3283     2.6693    -1.2170 C.ar    
   6 C6             3.9923     2.9036    -0.0205 C.ar    
   7 C7             3.3511     2.6568     1.1860 C.ar    
   8 C8             2.0533     2.1841     1.1926 C.ar    
   9 N9             5.3078     3.3880    -0.0304 N.pl3   
  10 C10            6.0649     3.6575     1.0571 C.2     
  11 C11            7.2665     4.1026     0.6222 C.2     
  12 C12            7.2441     4.1057    -0.7768 C.2     
  13 N13            6.0729     3.6728    -1.1688 N.2     
  14 C14            8.3757     4.5297    -1.6773 C.3     
  15 F15            9.1817     3.4233    -1.9659 F       
  16 F16            7.8550     5.0504    -2.8668 F       
  17 F17            9.1408     5.5091    -1.0350 F       
  18 H18           -0.5445     1.7859    -0.8732 H       
  19 H19           -0.5275     1.7763     0.9067 H       
  20 H20           -0.8759    -0.4094     0.0082 H       
  21 H21            1.5153     2.0092    -2.1345 H       
  22 H22            3.8247     2.8600    -2.1570 H       
  23 H23            3.8652     2.8378     2.1183 H       
  24 H24            1.5525     1.9958     2.1308 H       
  25 H25            5.7644     3.5393     2.0877 H       
  26 H26            8.0962     4.4029     1.2450 H       
@<TRIPOS>BOND
   1    1    2 1
   2    1    3 1
   3    1   18 1
   4    1   19 1
   5    2   20 1
   6    3    4 ar
   7    3    8 ar
   8    4    5 ar
   9    4   21 1
  10    5    6 ar
  11    5   22 1
  12    6    7 ar
  13    6    9 1
  14    7    8 ar
  15    7   23 1
  16    8   24 1
  17    9   10 1
  18    9   13 1
  19   10   11 2
  20   10   25 1
  21   11   12 1
  22   11   26 1
  23   12   13 2
  24   12   14 1
  25   14   15 1
  26   14   16 1
  27   14   17 1

#	End of record

