#	Name: ASD01884042
#	Creating user name:	WinNT
#	Creation time:	15. 06. 2019 19:47

#	Modifying user name:	WinNT
#	Modification time:	15. 06. 2019 19:47

#	Program:	/corina/corina34_cracker 3.40 0067  02.08.2006

@<TRIPOS>MOLECULE
ASD01884042
  42   45    0    0    0
SMALL
NO_CHARGES


@<TRIPOS>ATOM
   1 C1            -0.4406     1.2698     0.2467 C.3     
   2 C2            -0.1584    -0.2326     0.1822 C.3     
   3 H3            -1.0921    -0.7833     0.2963 H       
   4 C4             0.4741    -0.5751    -1.1656 C.3     
   5 N5             1.0420    -1.9187    -1.1935 N.am    
   6 C6             1.7235    -2.4206    -0.1351 C.2     
   7 O7             2.3645    -3.4516    -0.2150 O.2     
   8 C8             1.6460    -1.6514     1.1132 C.2     
   9 C9             2.3404    -1.7610     2.2988 C.2     
  10 C10            1.8268    -0.7251     3.1104 C.2     
  11 N11            0.9098    -0.0925     2.4202 N.2     
  12 N12            0.7652    -0.6046     1.2614 N.pl3   
  13 C13            3.3917    -2.7468     2.6453 C.ar    
  14 C14            3.1923    -4.1144     2.4325 C.ar    
  15 C15            4.1973    -4.9976     2.7695 C.ar    
  16 N16            5.3325    -4.5669     3.2855 N.ar    
  17 C17            5.5609    -3.2858     3.5023 C.ar    
  18 C18            4.6124    -2.3342     3.1886 C.ar    
  19 C19            0.8792    -2.7061    -2.3374 C.ar    
  20 C20            0.0878    -3.8467    -2.2904 C.ar    
  21 C21           -0.0713    -4.6220    -3.4222 C.ar    
  22 C22            0.5565    -4.2641    -4.6012 C.ar    
  23 C23            1.3450    -3.1292    -4.6514 C.ar    
  24 C24            1.5037    -2.3464    -3.5247 C.ar    
  25 C25            0.3814    -5.1130    -5.8340 C.3     
  26 F26           -0.7260    -4.6597    -6.5589 F       
  27 F27            1.5285    -5.0222    -6.6295 F       
  28 F28            0.1789    -6.4452    -5.4579 F       
  29 H29            0.4933     1.8201     0.1325 H       
  30 H30           -1.1253     1.5457    -0.5553 H       
  31 H31           -0.8908     1.5139     1.2089 H       
  32 H32           -0.2874    -0.4984    -1.9417 H       
  33 H33            1.2639     0.1456    -1.3774 H       
  34 H34            2.1347    -0.4956     4.1198 H       
  35 H35            2.2652    -4.4741     2.0111 H       
  36 H36            4.0527    -6.0557     2.6089 H       
  37 H37            6.5049    -2.9773     3.9267 H       
  38 H38            4.8079    -1.2867     3.3644 H       
  39 H39           -0.4022    -4.1271    -1.3697 H       
  40 H40           -0.6865    -5.5089    -3.3863 H       
  41 H41            1.8340    -2.8525    -5.5737 H       
  42 H42            2.1161    -1.4577    -3.5657 H       
@<TRIPOS>BOND
   1    1    2 1
   2    1   29 1
   3    1   30 1
   4    1   31 1
   5    2    3 1
   6    2   12 1
   7    2    4 1
   8    4    5 1
   9    4   32 1
  10    4   33 1
  11    5    6 am
  12    5   19 1
  13    6    7 2
  14    6    8 1
  15    8   12 1
  16    8    9 2
  17    9   10 1
  18    9   13 1
  19   10   11 2
  20   10   34 1
  21   11   12 1
  22   13   18 ar
  23   13   14 ar
  24   14   15 ar
  25   14   35 1
  26   15   16 ar
  27   15   36 1
  28   16   17 ar
  29   17   18 ar
  30   17   37 1
  31   18   38 1
  32   19   24 ar
  33   19   20 ar
  34   20   21 ar
  35   20   39 1
  36   21   22 ar
  37   21   40 1
  38   22   23 ar
  39   22   25 1
  40   23   24 ar
  41   23   41 1
  42   24   42 1
  43   25   26 1
  44   25   27 1
  45   25   28 1

#	End of record

