#	Name: ASD00842905
#	Creating user name:	WinNT
#	Creation time:	15. 06. 2019 18:45

#	Modifying user name:	WinNT
#	Modification time:	15. 06. 2019 18:45

#	Program:	/corina/corina34_cracker 3.40 0067  02.08.2006

@<TRIPOS>MOLECULE
ASD00842905
  96  101    0    0    0
SMALL
NO_CHARGES


@<TRIPOS>ATOM
   1 N1            -0.0141     1.3152     0.0261 N.ar    
   2 C2             0.0028    -0.0071     0.0116 C.ar    
   3 C3             1.2071    -0.6993    -0.0063 C.ar    
   4 C4             2.3933     0.0133    -0.0086 C.ar    
   5 C5             2.3326     1.4002     0.0071 C.ar    
   6 C6             1.1003     2.0221     0.0244 C.ar    
   7 C7             1.2215    -2.2062    -0.0223 C.3     
   8 C8             0.4763    -2.7311    -1.2310 C.2     
   9 N9             2.5988    -2.7054    -0.0115 N.am    
  10 C10            3.4472    -2.3639    -1.0016 C.2     
  11 N11            4.7405    -2.7378    -0.9396 N.am    
  12 O12            3.0456    -1.7187    -1.9507 O.2     
  13 C13            5.2673    -3.4167     0.2522 C.3     
  14 C14            6.4979    -2.6530     0.7512 C.3     
  15 C15            7.5066    -2.5163    -0.3916 C.3     
  16 C16            6.8768    -1.7215    -1.5378 C.3     
  17 C17            5.6491    -2.4797    -2.0650 C.3     
  18 N18            8.7022    -1.8134     0.0923 N.3     
  19 C19            9.7422    -1.7677    -0.9449 C.3     
  20 C20           10.9367    -0.9606    -0.4307 C.3     
  21 N21           11.4502    -1.5802     0.7990 N.3     
  22 C22           10.4102    -1.6259     1.8362 C.3     
  23 C23            9.2158    -2.4329     1.3220 C.3     
  24 C24           12.6459    -0.8772     1.2830 C.3     
  25 O25            0.7580    -2.5309    -2.3935 O.2     
  26 N26           -0.5550    -3.4609    -0.7746 N.am    
  27 C27            0.4461    -2.7561     1.1532 C.ar    
  28 C28           -0.6036    -3.4974     0.6161 C.ar    
  29 C29            0.6094    -2.6424     2.5106 C.ar    
  30 C30           -0.2887    -3.2781     3.3753 C.ar    
  31 C31           -1.3464    -4.0250     2.8426 C.ar    
  32 C32           -1.4988    -4.1327     1.4768 C.ar    
  33 F33           -2.2187    -4.6425     3.6689 F       
  34 C34           -1.0180    -5.8465    -2.0665 C.ar    
  35 C35            0.1611    -6.0082    -2.7791 C.ar    
  36 C36           -1.6969    -6.9540    -1.5960 C.ar    
  37 C37           -1.2018    -8.2226    -1.8344 C.ar    
  38 C38           -0.0265    -8.3865    -2.5445 C.ar    
  39 C39            0.6557    -7.2825    -3.0174 C.ar    
  40 H40            0.3582    -9.3785    -2.7295 H       
  41 O41            0.8305    -4.9205    -3.2433 O.3     
  42 C42            2.0375    -5.1624    -3.9689 C.3     
  43 C43            2.6449    -3.8285    -4.4078 C.3     
  44 C44           13.0042    -1.3838     2.6815 C.3     
  45 C45           14.2495    -0.6516     3.1856 C.3     
  46 O46           -1.1671    -0.6941     0.0145 O.3     
  47 C47           -2.3712     0.0752     0.0336 C.3     
  48 C48           -3.5777    -0.8657     0.0341 C.3     
  49 F49           -3.5500    -1.6600    -1.1173 F       
  50 F50           -3.5297    -1.6849     1.1671 F       
  51 S51           -1.6455    -4.2297    -1.7555 S.o2    
  52 O52           -2.8277    -4.3994    -0.9855 O.2     
  53 O53           -1.6200    -3.5432    -2.9994 O.2     
  54 C54           -0.1269    -3.1660     4.7937 C.1     
  55 N55            0.0014    -3.0771     5.9190 N.1     
  56 H56            3.3446    -0.4978    -0.0219 H       
  57 H57            3.2397     1.9862     0.0061 H       
  58 H58            1.0475     3.1007     0.0362 H       
  59 H59            2.9002    -3.2816     0.7082 H       
  60 H60            4.5052    -3.4309     1.0314 H       
  61 H61            5.5499    -4.4378    -0.0039 H       
  62 H62            6.1977    -1.6621     1.0919 H       
  63 H63            6.9550    -3.1989     1.5765 H       
  64 H64            7.7876    -3.5072    -0.7483 H       
  65 H65            6.5730    -0.7394    -1.1756 H       
  66 H66            7.6035    -1.6045    -2.3417 H       
  67 H67            5.9656    -3.4231    -2.5099 H       
  68 H68            5.1388    -1.8734    -2.8134 H       
  69 H69           10.0637    -2.7817    -1.1825 H       
  70 H70            9.3416    -1.2935    -1.8409 H       
  71 H71           11.7211    -0.9498    -1.1874 H       
  72 H72           10.6212     0.0610    -0.2188 H       
  73 H73           10.8108    -2.1001     2.7322 H       
  74 H74           10.0888    -0.6118     2.0739 H       
  75 H75            8.4313    -2.4437     2.0787 H       
  76 H76            9.5312    -3.4545     1.1102 H       
  77 H77           13.4777    -1.0655     0.6042 H       
  78 H78           12.4460     0.1935     1.3245 H       
  79 H79            1.4290    -2.0640     2.9107 H       
  80 H80           -2.3164    -4.7102     1.0712 H       
  81 H81           -2.6149    -6.8286    -1.0411 H       
  82 H82           -1.7336    -9.0870    -1.4651 H       
  83 H83            1.5731    -7.4111    -3.5726 H       
  84 H84            2.7453    -5.6915    -3.3307 H       
  85 H85            1.8178    -5.7683    -4.8480 H       
  86 H86            1.9372    -3.2994    -5.0460 H       
  87 H87            2.8647    -3.2226    -3.5287 H       
  88 H88            3.5656    -4.0130    -4.9612 H       
  89 H89           12.1724    -1.1955     3.3603 H       
  90 H90           13.2041    -2.4545     2.6400 H       
  91 H91           15.0813    -0.8399     2.5068 H       
  92 H92           14.0496     0.4191     3.2271 H       
  93 H93           14.5048    -1.0125     4.1819 H       
  94 H94           -2.3927     0.6941     0.9306 H       
  95 H95           -2.4086     0.7135    -0.8492 H       
  96 H96           -4.4961    -0.2789     0.0486 H       
@<TRIPOS>BOND
   1    1    2 ar
   2    1    6 ar
   3    2    3 ar
   4    2   46 1
   5    3    4 ar
   6    3    7 1
   7    4    5 ar
   8    4   56 1
   9    5    6 ar
  10    5   57 1
  11    6   58 1
  12    7    8 1
  13    7    9 1
  14    7   27 1
  15    8   25 2
  16    8   26 am
  17    9   10 am
  18    9   59 1
  19   10   11 am
  20   10   12 2
  21   11   13 1
  22   11   17 1
  23   13   14 1
  24   13   60 1
  25   13   61 1
  26   14   15 1
  27   14   62 1
  28   14   63 1
  29   15   16 1
  30   15   18 1
  31   15   64 1
  32   16   17 1
  33   16   65 1
  34   16   66 1
  35   17   67 1
  36   17   68 1
  37   18   19 1
  38   18   23 1
  39   19   20 1
  40   19   69 1
  41   19   70 1
  42   20   21 1
  43   20   71 1
  44   20   72 1
  45   21   22 1
  46   21   24 1
  47   22   23 1
  48   22   73 1
  49   22   74 1
  50   23   75 1
  51   23   76 1
  52   24   44 1
  53   24   77 1
  54   24   78 1
  55   26   51 am
  56   26   28 1
  57   27   28 ar
  58   27   29 ar
  59   28   32 ar
  60   29   30 ar
  61   29   79 1
  62   30   31 ar
  63   30   54 1
  64   31   32 ar
  65   31   33 1
  66   32   80 1
  67   34   35 ar
  68   34   36 ar
  69   34   51 1
  70   35   41 1
  71   35   39 ar
  72   36   37 ar
  73   36   81 1
  74   37   38 ar
  75   37   82 1
  76   38   39 ar
  77   38   40 1
  78   39   83 1
  79   41   42 1
  80   42   43 1
  81   42   84 1
  82   42   85 1
  83   43   86 1
  84   43   87 1
  85   43   88 1
  86   44   45 1
  87   44   89 1
  88   44   90 1
  89   45   91 1
  90   45   92 1
  91   45   93 1
  92   46   47 1
  93   47   48 1
  94   47   94 1
  95   47   95 1
  96   48   49 1
  97   48   50 1
  98   48   96 1
  99   51   52 2
 100   51   53 2
 101   54   55 3

#	End of record

