#	Name: ASD03082396
#	Creating user name:	WinNT
#	Creation time:	15. 06. 2019 20:27

#	Modifying user name:	WinNT
#	Modification time:	15. 06. 2019 20:27

#	Program:	/corina/corina34_cracker 3.40 0067  02.08.2006

@<TRIPOS>MOLECULE
ASD03082396
  42   44    0    0    0
SMALL
NO_CHARGES


@<TRIPOS>ATOM
   1 C1             0.8880     3.2556    -0.1896 C.ar    
   2 C2             1.9837     4.0802     0.0296 C.ar    
   3 C3             1.8184     5.4510     0.0712 C.ar    
   4 C4             0.5635     6.0044    -0.1050 C.ar    
   5 C5            -0.5320     5.1874    -0.3239 C.ar    
   6 Cl6           -2.1054     5.8868    -0.5452 Cl      
   7 N7             1.0527     1.8675    -0.2317 N.pl3   
   8 C8             2.3378     1.3152    -0.2239 C.2     
   9 C9             2.6460    -0.0539    -0.1445 C.2     
  10 N10            3.4640     1.9855    -0.2951 N.2     
  11 N11            4.5223     1.0684    -0.2582 N.pl3   
  12 C12            3.9918    -0.1790    -0.1655 C.2     
  13 C13            5.8839     1.3813    -0.3114 C.ar    
  14 C14            6.7770     0.5698    -1.0080 C.ar    
  15 C15            6.3820     2.5162     0.3262 C.ar    
  16 C16            7.7320     2.7902     0.2497 C.ar    
  17 N17            8.5471     1.9939    -0.4160 N.ar    
  18 C18            8.1133     0.9136    -1.0368 C.ar    
  19 C19            8.2827     4.0144     0.9344 C.3     
  20 H20            8.8133     0.2881    -1.5707 H       
  21 C21            4.7653    -1.4706    -0.0978 C.3     
  22 C22            4.8484    -2.0791    -1.4739 C.2     
  23 C23           -0.3744     3.8131    -0.3615 C.ar    
  24 O24            5.4955    -3.2409    -1.6561 O.3     
  25 C25            5.5357    -3.7682    -3.0084 C.3     
  26 O26            4.3325    -1.5212    -2.4134 O.2     
  27 F27           -1.4432     3.0149    -0.5755 F       
  28 H28            2.9646     3.6499     0.1679 H       
  29 H29            2.6708     6.0918     0.2421 H       
  30 H30            0.4379     7.0765    -0.0715 H       
  31 H31            0.2759     1.2877    -0.2663 H       
  32 H32            1.9336    -0.8628    -0.0779 H       
  33 H33            6.4285    -0.3161    -1.5180 H       
  34 H34            5.7204     3.1722     0.8724 H       
  35 H35            8.5754     3.7602     1.9531 H       
  36 H36            9.1523     4.3771     0.3863 H       
  37 H37            7.5188     4.7915     0.9591 H       
  38 H38            5.7709    -1.2729     0.2734 H       
  39 H39            4.2589    -2.1624     0.5754 H       
  40 H40            4.5189    -3.9408    -3.3613 H       
  41 H41            6.0308    -3.0513    -3.6633 H       
  42 H42            6.0873    -4.7083    -3.0156 H       
@<TRIPOS>BOND
   1    1    2 ar
   2    1    7 1
   3    1   23 ar
   4    2    3 ar
   5    2   28 1
   6    3    4 ar
   7    3   29 1
   8    4    5 ar
   9    4   30 1
  10    5   23 ar
  11    5    6 1
  12    7    8 1
  13    7   31 1
  14    8    9 1
  15    8   10 2
  16    9   12 2
  17    9   32 1
  18   10   11 1
  19   11   12 1
  20   11   13 1
  21   12   21 1
  22   13   14 ar
  23   13   15 ar
  24   14   18 ar
  25   14   33 1
  26   15   16 ar
  27   15   34 1
  28   16   17 ar
  29   16   19 1
  30   17   18 ar
  31   18   20 1
  32   19   35 1
  33   19   36 1
  34   19   37 1
  35   21   22 1
  36   21   38 1
  37   21   39 1
  38   22   24 1
  39   22   26 2
  40   23   27 1
  41   24   25 1
  42   25   40 1
  43   25   41 1
  44   25   42 1

#	End of record

