#	Name: ASD01150630
#	Creating user name:	WinNT
#	Creation time:	15. 06. 2019 19:04

#	Modifying user name:	WinNT
#	Modification time:	15. 06. 2019 19:04

#	Program:	/corina/corina34_cracker 3.40 0067  02.08.2006

@<TRIPOS>MOLECULE
ASD01150630
  55   57    0    0    0
SMALL
NO_CHARGES


@<TRIPOS>ATOM
   1 C1             1.0958     0.8729     0.4932 C.ar    
   2 C2             1.0162    -0.4723     0.7978 C.ar    
   3 C3             2.0281    -0.0499     2.9361 C.ar    
   4 C4             2.1092     1.3008     2.6316 C.ar    
   5 C5             1.6424     1.7633     1.4090 C.ar    
   6 N6             1.7228     3.1259     1.0988 N.am    
   7 C7             0.6377     3.7627     0.6243 C.2     
   8 N8             0.6796     5.0722     0.3157 N.am    
   9 C9             1.8230     5.7692     0.4805 C.2     
  10 C10            3.0133     5.0786     0.9990 C.2     
  11 N11            2.9302     3.8075     1.2922 N.2     
  12 O12            1.8688     6.9533     0.2034 O.2     
  13 C13           -0.5174     5.7412    -0.2000 C.3     
  14 O14           -0.3987     3.1451     0.4711 O.2     
  15 C15           -1.3178     6.2958     0.9502 C.ar    
  16 O16            4.1795     5.7526     1.1760 O.3     
  17 C17            5.2884     5.0080     1.6839 C.3     
  18 C18            1.4804    -0.9369     2.0154 C.ar    
  19 N19            2.4985    -0.5202     4.1685 N.am    
  20 C20            2.4841     0.2869     5.2478 C.2     
  21 O21            2.1368     1.4436     5.1355 O.2     
  22 C22            2.8994    -0.2478     6.5942 C.3     
  23 C23           -1.0773     7.5794     1.4033 C.ar    
  24 C24           -1.8101     8.0917     2.4582 C.ar    
  25 C25           -2.7854     7.3208     3.0622 C.ar    
  26 C26           -3.0285     6.0311     2.6085 C.ar    
  27 C27           -2.2954     5.5225     1.5471 C.ar    
  28 F28            1.4013    -2.2529     2.3105 F       
  29 Cl29          -3.7049     7.9638     4.3868 Cl      
  30 O30           -3.9869     5.2705     3.2005 O.3     
  31 C31           -4.2172     3.9724     2.6493 C.3     
  32 C32           -3.2140     2.9811     3.2425 C.3     
  33 C33           -5.6399     3.5207     2.9852 C.3     
  34 H34            0.7367     1.2322    -0.4599 H       
  35 H35            0.5905    -1.1623     0.0843 H       
  36 H36            2.5344     1.9916     3.3447 H       
  37 H37           -0.2220     6.5547    -0.8626 H       
  38 H38           -1.1245     5.0244    -0.7529 H       
  39 H39            6.1541     5.6637     1.7772 H       
  40 H40            5.0346     4.5999     2.6622 H       
  41 H41            5.5225     4.1925     0.9996 H       
  42 H42            2.8347    -1.4268     4.2454 H       
  43 H43            3.9715    -0.1034     6.7274 H       
  44 H44            2.3609     0.2844     7.3783 H       
  45 H45            2.6661    -1.3110     6.6506 H       
  46 H46           -0.3153     8.1831     0.9328 H       
  47 H47           -1.6200     9.0948     2.8106 H       
  48 H48           -2.4828     4.5198     1.1922 H       
  49 H49           -4.0940     4.0101     1.5669 H       
  50 H50           -3.3897     1.9909     2.8220 H       
  51 H51           -2.2005     3.3029     3.0032 H       
  52 H52           -3.3372     2.9433     4.3248 H       
  53 H53           -6.3546     4.2269     2.5625 H       
  54 H54           -5.8156     2.5305     2.5647 H       
  55 H55           -5.7631     3.4829     4.0675 H       
@<TRIPOS>BOND
   1    1    2 ar
   2    1    5 ar
   3    1   34 1
   4    2   18 ar
   5    2   35 1
   6    3    4 ar
   7    3   19 1
   8    3   18 ar
   9    4    5 ar
  10    4   36 1
  11    5    6 1
  12    6    7 am
  13    6   11 1
  14    7    8 am
  15    7   14 2
  16    8    9 am
  17    8   13 1
  18    9   10 1
  19    9   12 2
  20   10   11 2
  21   10   16 1
  22   13   15 1
  23   13   37 1
  24   13   38 1
  25   15   23 ar
  26   15   27 ar
  27   16   17 1
  28   17   39 1
  29   17   40 1
  30   17   41 1
  31   18   28 1
  32   19   20 am
  33   19   42 1
  34   20   21 2
  35   20   22 1
  36   22   43 1
  37   22   44 1
  38   22   45 1
  39   23   24 ar
  40   23   46 1
  41   24   25 ar
  42   24   47 1
  43   25   26 ar
  44   25   29 1
  45   26   27 ar
  46   26   30 1
  47   27   48 1
  48   30   31 1
  49   31   32 1
  50   31   33 1
  51   31   49 1
  52   32   50 1
  53   32   51 1
  54   32   52 1
  55   33   53 1
  56   33   54 1
  57   33   55 1

#	End of record

