#	Name: ASD06600070
#	Creating user name:	WinNT
#	Creation time:	15. 06. 2019 21:07

#	Modifying user name:	WinNT
#	Modification time:	15. 06. 2019 21:07

#	Program:	/corina/corina34_cracker 3.40 0067  02.08.2006

@<TRIPOS>MOLECULE
ASD06600070
 350  350    0    0    0
SMALL
NO_CHARGES


@<TRIPOS>ATOM
   1 C1            -4.0646    -6.4081   -12.5355 C.2     
   2 O2            -4.7657    -6.0966   -13.4748 O.2     
   3 N3            -2.3172    -6.8708   -14.1595 N.3     
   4 C4            -2.5866    -6.6226   -12.7369 C.3     
   5 C5            -1.8240    -5.3762   -12.2833 C.3     
   6 C6            -0.3193    -5.6391   -12.3705 C.3     
   7 C7             0.4434    -4.3927   -11.9169 C.3     
   8 N8             1.8842    -4.6445   -12.0003 N.pl3   
   9 C9             2.7754    -3.6618   -11.6412 C.2     
  10 N10            2.3415    -2.4839   -11.2960 N.2     
  11 N11            4.1319    -3.9239   -11.6467 N.am    
  12 C12           -6.2151    -5.7837    -9.6664 C.2     
  13 O13           -5.3851    -6.0537    -8.8243 O.2     
  14 N14           -4.6064    -6.5572   -11.3105 N.am    
  15 C15           -6.0189    -6.2367   -11.0902 C.3     
  16 C16           -6.8708    -7.4804   -11.3517 C.3     
  17 C17           -8.3507    -7.1288   -11.1868 C.3     
  18 C18           -8.7546    -6.1093   -12.2538 C.3     
  19 C19           -9.1962    -8.3941   -11.3445 C.3     
  20 C20           -8.9022    -4.3462    -7.6474 C.2     
  21 O21           -9.7499    -4.6469    -8.4609 O.2     
  22 N22           -7.3129    -5.0785    -9.3288 N.am    
  23 C23           -7.4430    -4.5280    -7.9774 C.3     
  24 C24           -6.7319    -3.1752    -7.9072 C.3     
  25 C25           -5.2301    -3.3768    -8.1193 C.3     
  26 C26           -4.5189    -2.0240    -8.0491 C.3     
  27 N27           -3.0810    -2.2171    -8.2521 N.pl3   
  28 C28           -2.2324    -1.1355    -8.2311 C.2     
  29 N29           -0.9531    -1.3073    -8.4117 N.2     
  30 N30           -2.7333     0.1272    -8.0195 N.pl3   
  31 C31          -11.0531    -2.2408    -6.7709 C.2     
  32 O32          -10.2257    -1.5920    -7.3754 O.2     
  33 N33           -9.2650    -3.8495    -6.4482 N.am    
  34 C34          -10.6754    -3.5692    -6.1678 C.3     
  35 C35          -10.8951    -3.5232    -4.6544 C.3     
  36 C36          -10.5815    -4.8720    -4.0600 C.2     
  37 O37          -10.1353    -5.7550    -4.7616 O.2     
  38 N38          -10.7968    -5.0971    -2.7487 N.am    
  39 C39          -13.8480     0.0964    -6.4722 C.2     
  40 O40          -14.3281    -0.5102    -5.5382 O.2     
  41 N41          -12.3104    -1.7737    -6.6385 N.am    
  42 C42          -12.6776    -0.4823    -7.2247 C.3     
  43 C43          -13.0620    -0.6794    -8.6925 C.3     
  44 C44          -16.7661     1.4378    -6.5494 C.2     
  45 O45          -16.8259     0.6696    -7.4860 O.2     
  46 N46          -14.3611     1.2880    -6.8372 N.am    
  47 C47          -15.4259     1.9021    -6.0401 C.3     
  48 C48          -15.3360     3.4251    -6.1560 C.3     
  49 C49          -14.0468     3.9007    -5.5372 C.2     
  50 O50          -13.2354     3.0955    -5.1320 O.2     
  51 N51          -13.7956     5.2208    -5.4343 N.am    
  52 C52          -20.2521     2.4475    -6.1119 C.2     
  53 O53          -19.9433     3.4543    -5.5102 O.2     
  54 N54          -17.8982     1.8763    -5.9641 N.am    
  55 C55          -19.2010     1.4249    -6.4591 C.3     
  56 C56          -19.5576     0.0863    -5.8096 C.3     
  57 C57          -18.5603    -0.9820    -6.2624 C.3     
  58 C58          -18.9169    -2.3206    -5.6128 C.3     
  59 N59          -17.9619    -3.3435    -6.0464 N.pl3   
  60 C60          -18.0826    -4.6344    -5.5891 C.2     
  61 N61          -17.2329    -5.5445    -5.9748 N.2     
  62 N62          -19.0993    -4.9654    -4.7249 N.pl3   
  63 C63          -23.9053     2.5680    -6.0621 C.2     
  64 O64          -24.1133     1.5551    -6.6958 O.2     
  65 N65          -21.5353     2.2434    -6.4701 N.am    
  66 C66          -22.5570     3.2375    -6.1326 C.3     
  67 C67          -22.5838     4.3264    -7.2071 C.3     
  68 C68          -21.2337     5.0455    -7.2382 C.3     
  69 C69          -21.2605     6.1344    -8.3127 C.3     
  70 N70          -19.9678     6.8230    -8.3425 N.pl3   
  71 C71          -19.7548     7.8470    -9.2348 C.2     
  72 N72          -20.7030     8.2051   -10.0543 N.2     
  73 N73          -18.5416     8.4932    -9.2627 N.pl3   
  74 C74          -26.9088     2.6736    -6.5779 C.2     
  75 O75          -26.2772     3.0843    -7.5283 O.2     
  76 N76          -24.8801     3.0950    -5.2949 N.am    
  77 C77          -26.2656     2.6095    -5.2165 C.3     
  78 C78          -27.0196     3.5322    -4.2359 C.3     
  79 C79          -26.1648     4.8270    -4.2500 C.3     
  80 C80          -24.7319     4.2496    -4.3903 C.3     
  81 C81          -29.3783     3.8447    -8.1540 C.2     
  82 O82          -29.2207     4.6309    -7.2441 O.2     
  83 N83          -28.1860     2.2744    -6.7392 N.am    
  84 C84          -28.8468     2.4395    -8.0362 C.3     
  85 C85          -30.0042     1.4453    -8.1492 C.3     
  86 C86          -29.4656     0.0389    -8.0937 C.2     
  87 O87          -28.2680    -0.1514    -8.0723 O.2     
  88 N88          -30.3147    -1.0074    -8.0678 N.am    
  89 C89          -31.6983     5.6151   -10.3554 C.2     
  90 O90          -32.0533     4.5901   -10.8980 O.2     
  91 N91          -30.0288     4.2277    -9.2705 N.am    
  92 C92          -30.5455     5.5938    -9.3851 C.3     
  93 C93          -29.4360     6.5180    -9.8908 C.3     
  94 C94          -28.3199     6.5936    -8.8470 C.3     
  95 C95          -27.2105     7.5178    -9.3527 C.3     
  96 N96          -26.1418     7.5902    -8.3533 N.pl3   
  97 C97          -25.0316     8.3663    -8.5889 C.2     
  98 N98          -24.0808     8.4307    -7.6997 N.2     
  99 N99          -24.9244     9.0743    -9.7625 N.pl3   
 100 C100         -33.1051     6.9541   -12.9145 C.2     
 101 O101         -31.9306     7.0667   -13.1951 O.2     
 102 N102         -32.3348     6.7732   -10.6204 N.am    
 103 C103         -33.5229     6.7766   -11.4775 C.3     
 104 C104         -34.4438     7.9278   -11.0682 C.3     
 105 C105         -34.9112     7.7176    -9.6510 C.2     
 106 O106         -34.6230     6.6971    -9.0625 O.2     
 107 N107         -35.6495     8.6637    -9.0376 N.am    
 108 C108         -34.7677     7.7648   -16.0676 C.2     
 109 O109         -35.8143     8.0258   -15.5131 O.2     
 110 N110         -34.0367     6.9877   -13.8879 N.am    
 111 C111         -33.6306     7.1603   -15.2849 C.3     
 112 C112         -33.2671     5.7994   -15.8821 C.3     
 113 C113         -32.0341     5.2420   -15.1681 C.3     
 114 C114         -31.6705     3.8811   -15.7653 C.3     
 115 C115         -30.4376     3.3237   -15.0512 C.3     
 116 N116         -30.0885     2.0170   -15.6247 N.3     
 117 C117         -35.5885     8.2329   -19.5989 C.2     
 118 O118         -34.6581     7.5458   -19.9638 O.2     
 119 N119         -34.6216     8.0154   -17.3838 N.am    
 120 C120         -35.7270     8.6031   -18.1447 C.3     
 121 C121         -35.6925    10.1259   -18.0005 C.3     
 122 C122         -37.0625     9.3359   -22.7570 C.2     
 123 O123         -37.7220    10.2081   -22.2325 O.2     
 124 N124         -36.4986     8.6653   -20.4940 N.am    
 125 C125         -36.3640     8.3055   -21.9077 C.3     
 126 C126         -36.9969     6.9332   -22.1471 C.3     
 127 C127         -36.1989     5.8655   -21.3963 C.3     
 128 C128         -38.4404     6.9418   -21.6399 C.3     
 129 C129         -38.9951    10.0470   -25.1710 C.2     
 130 O130         -39.4929     9.0417   -24.7100 O.2     
 131 N131         -36.9541     9.2882   -24.0996 N.am    
 132 C132         -37.5405    10.3509   -24.9200 C.3     
 133 C133         -36.7986    10.4323   -26.2556 C.3     
 134 C134         -35.3512    10.8629   -26.0096 C.3     
 135 C135         -34.6093    10.9443   -27.3452 C.3     
 136 N136         -33.2234    11.3566   -27.1097 N.pl3   
 137 C137         -32.3590    11.4987   -28.1692 C.2     
 138 N138         -32.7725    11.2667   -29.3833 N.2     
 139 N139         -31.0584    11.8857   -27.9482 N.pl3   
 140 C140         -41.2803     9.6802   -27.3415 C.2     
 141 O141         -40.2890     9.3115   -27.9256 O.2     
 142 N142         -39.7427    10.8924   -25.9078 N.am    
 143 C143         -41.1567    10.5969   -26.1518 C.3     
 144 C144         -41.9090    11.8995   -26.4314 C.3     
 145 C145         -43.3858    11.5910   -26.6863 C.3     
 146 C146         -41.7836    12.8303   -25.2236 C.3     
 147 O147         -42.4917     9.2733   -27.7523 O.3     
 148 C148           4.5878    -5.1069   -12.1040 C.2     
 149 O149           3.8210    -5.8965   -12.6126 O.2     
 150 C150          18.1974   -17.5965   -15.2627 C.3     
 151 C151          16.7122   -17.2499   -15.3852 C.3     
 152 C152          16.4622   -15.8610   -14.7942 C.3     
 153 C153          14.9770   -15.5145   -14.9167 C.3     
 154 C154          14.7269   -14.1256   -14.3257 C.3     
 155 C155          13.2417   -13.7790   -14.4483 C.3     
 156 C156          12.9917   -12.3901   -13.8572 C.3     
 157 C157          11.5065   -12.0435   -13.9798 C.3     
 158 C158          11.2564   -10.6546   -13.3887 C.3     
 159 C159           9.7712   -10.3081   -13.5113 C.3     
 160 C160           9.5212    -8.9192   -12.9202 C.3     
 161 C161           8.0360    -8.5726   -13.0428 C.3     
 162 C162           7.7859    -7.1837   -12.4518 C.3     
 163 C163           6.3007    -6.8371   -12.5743 C.3     
 164 C164           6.0507    -5.4482   -11.9833 C.3     
 165 H165          -2.6107    -6.0883   -14.7250 H       
 166 H166          -1.3422    -7.0813   -14.3115 H       
 167 H167          -2.2608    -7.4815   -12.1502 H       
 168 H168          -2.0840    -4.5365   -12.9279 H       
 169 H169          -2.0926    -5.1405   -11.2536 H       
 170 H170          -0.0592    -6.4788   -11.7259 H       
 171 H171          -0.0506    -5.8747   -13.4002 H       
 172 H172           0.1833    -3.5530   -12.5614 H       
 173 H173           0.1747    -4.1571   -10.8871 H       
 174 H174           2.2091    -5.5047   -12.3090 H       
 175 H175           2.9635    -1.8133   -10.9732 H       
 176 H176           4.7562    -3.2565   -11.3214 H       
 177 H177          -4.0611    -6.8767   -10.5746 H       
 178 H178          -6.3209    -5.4400   -11.7699 H       
 179 H179          -6.6927    -7.8360   -12.3666 H       
 180 H180          -6.6015    -8.2614   -10.6406 H       
 181 H181          -8.5149    -6.7030   -10.1969 H       
 182 H182          -9.8275    -5.9267   -12.1942 H       
 183 H183          -8.2173    -5.1758   -12.0863 H       
 184 H184          -8.5067    -6.4991   -13.2411 H       
 185 H185          -8.9085    -9.1204   -10.5843 H       
 186 H186         -10.2505    -8.1436   -11.2270 H       
 187 H187          -9.0320    -8.8198   -12.3344 H       
 188 H188          -8.0169    -4.9355    -9.9806 H       
 189 H189          -6.9911    -5.2137    -7.2607 H       
 190 H190          -7.1234    -2.5181    -8.6838 H       
 191 H191          -6.9035    -2.7248    -6.9296 H       
 192 H192          -4.8385    -4.0339    -7.3427 H       
 193 H193          -5.0585    -3.8272    -9.0969 H       
 194 H194          -4.9105    -1.3669    -8.8256 H       
 195 H195          -4.6906    -1.5736    -7.0714 H       
 196 H196          -2.7276    -3.1080    -8.4014 H       
 197 H197          -0.3544    -0.5443    -8.3969 H       
 198 H198          -3.6854     0.2550    -7.8851 H       
 199 H199          -2.1347     0.8902    -8.0047 H       
 200 H200          -8.5924    -3.6775    -5.7708 H       
 201 H201         -11.2950    -4.3543    -6.6012 H       
 202 H202         -10.2398    -2.7712    -4.2148 H       
 203 H203         -11.9337    -3.2668    -4.4457 H       
 204 H204         -11.1536    -4.3910    -2.1876 H       
 205 H205         -10.5949    -5.9654    -2.3662 H       
 206 H206         -12.9721    -2.2926    -6.1550 H       
 207 H207         -11.8303     0.2004    -7.1596 H       
 208 H208         -13.9092    -1.3620    -8.7577 H       
 209 H209         -13.3352     0.2815    -9.1287 H       
 210 H210         -12.2154    -1.0979    -9.2368 H       
 211 H211         -14.0255     1.7390    -7.6277 H       
 212 H212         -15.3128     1.6099    -4.9961 H       
 213 H213         -15.3618     3.7116    -7.2073 H       
 214 H214         -16.1786     3.8795    -5.6347 H       
 215 H215         -14.4445     5.8648    -5.7584 H       
 216 H216         -12.9658     5.5270    -5.0360 H       
 217 H217         -17.8503     2.4907    -5.2150 H       
 218 H218         -19.1561     1.3031    -7.5414 H       
 219 H219         -19.5156     0.1862    -4.7250 H       
 220 H220         -20.5641    -0.2061    -6.1089 H       
 221 H221         -18.6023    -1.0818    -7.3470 H       
 222 H222         -17.5538    -0.6896    -5.9631 H       
 223 H223         -18.8749    -2.2207    -4.5282 H       
 224 H224         -19.9234    -2.6130    -5.9121 H       
 225 H225         -17.2445    -3.1100    -6.6561 H       
 226 H226         -17.3180    -6.4553    -5.6522 H       
 227 H227         -19.7316    -4.2881    -4.4379 H       
 228 H228         -19.1844    -5.8762    -4.4023 H       
 229 H229         -21.7822     1.4382    -6.9514 H       
 230 H230         -22.3230     3.6857    -5.1670 H       
 231 H231         -22.7763     3.8727    -8.1794 H       
 232 H232         -23.3722     5.0434    -6.9782 H       
 233 H233         -21.0412     5.4992    -6.2660 H       
 234 H234         -20.4453     4.3285    -7.4671 H       
 235 H235         -21.4530     5.6807    -9.2850 H       
 236 H236         -22.0489     6.8514    -8.0838 H       
 237 H237         -19.2621     6.5565    -7.7326 H       
 238 H238         -20.5527     8.9276   -10.6838 H       
 239 H239         -17.8360     8.2267    -8.6528 H       
 240 H240         -18.3913     9.2157    -9.8923 H       
 241 H241         -26.2787     1.5837    -4.8484 H       
 242 H242         -28.0294     3.7327    -4.5940 H       
 243 H243         -27.0430     3.0965    -3.2370 H       
 244 H244         -26.4217     5.4554    -5.1028 H       
 245 H245         -26.2729     5.3767    -3.3150 H       
 246 H246         -24.3542     3.9258    -3.4205 H       
 247 H247         -24.0654     4.9922    -4.8292 H       
 248 H248         -28.6677     1.8779    -5.9964 H       
 249 H249         -28.1293     2.2542    -8.8357 H       
 250 H250         -30.6989     1.6011    -7.3238 H       
 251 H251         -30.5237     1.5983    -9.0951 H       
 252 H252         -31.2726    -0.8552    -8.0849 H       
 253 H253         -29.9681    -1.9126    -8.0321 H       
 254 H254         -30.1548     3.5989    -9.9983 H       
 255 H255         -30.8866     5.9363    -8.4081 H       
 256 H256         -29.0340     6.1257   -10.8249 H       
 257 H257         -29.8428     7.5149   -10.0606 H       
 258 H258         -28.7220     6.9859    -7.9129 H       
 259 H259         -27.9131     5.5967    -8.6772 H       
 260 H260         -26.8084     7.1255   -10.2868 H       
 261 H261         -27.6172     8.5147    -9.5225 H       
 262 H262         -26.2174     7.0906    -7.5253 H       
 263 H263         -23.2976     8.9782    -7.8659 H       
 264 H264         -25.6320     9.0264   -10.4242 H       
 265 H265         -24.1411     9.6218    -9.9287 H       
 266 H266         -32.0062     7.6044   -10.2436 H       
 267 H267         -34.0530     5.8305   -11.3675 H       
 268 H268         -33.8996     8.8699   -11.1353 H       
 269 H269         -35.3059     7.9580   -11.7345 H       
 270 H270         -35.8800     9.4799    -9.5084 H       
 271 H271         -35.9504     8.5285    -8.1255 H       
 272 H272         -34.9761     6.8977   -13.6635 H       
 273 H273         -32.7649     7.8209   -15.3326 H       
 274 H274         -34.1029     5.1115   -15.7543 H       
 275 H275         -33.0507     5.9148   -16.9442 H       
 276 H276         -31.1982     5.9298   -15.2959 H       
 277 H277         -32.2505     5.1265   -14.1060 H       
 278 H278         -32.5064     3.1932   -15.6375 H       
 279 H279         -31.4541     3.9965   -16.8274 H       
 280 H280         -29.6017     4.0115   -15.1791 H       
 281 H281         -30.6540     3.2082   -13.9892 H       
 282 H282         -29.2766     1.6276   -15.1695 H       
 283 H283         -30.8700     1.3806   -15.5766 H       
 284 H284         -33.7845     7.8066   -17.8272 H       
 285 H285         -36.6741     8.2232   -17.7616 H       
 286 H286         -36.5150    10.5631   -18.5666 H       
 287 H287         -35.7927    10.3936   -16.9487 H       
 288 H288         -34.7454    10.5058   -18.3835 H       
 289 H289         -37.2428     9.2148   -20.2021 H       
 290 H290         -35.3078     8.2700   -22.1746 H       
 291 H291         -36.9880     6.7102   -23.2140 H       
 292 H292         -36.2898     6.0317   -20.3229 H       
 293 H293         -36.5885     4.8784   -21.6453 H       
 294 H294         -35.1497     5.9255   -21.6856 H       
 295 H295         -39.0089     7.7025   -22.1749 H       
 296 H296         -38.8913     5.9643   -21.8105 H       
 297 H297         -38.4493     7.1649   -20.5730 H       
 298 H298         -36.4879     8.5503   -24.5227 H       
 299 H299         -37.4533    11.3034   -24.3973 H       
 300 H300         -36.8100     9.4548   -26.7377 H       
 301 H301         -37.2899    11.1611   -26.9003 H       
 302 H302         -35.3399    11.8404   -25.5275 H       
 303 H303         -34.8600    10.1342   -25.3649 H       
 304 H304         -34.6207     9.9667   -27.8273 H       
 305 H305         -35.1006    11.6730   -27.9899 H       
 306 H306         -32.9157    11.5293   -26.2061 H       
 307 H307         -32.1626    11.3670   -30.1309 H       
 308 H308         -30.7507    12.0584   -27.0446 H       
 309 H309         -30.4485    11.9860   -28.6957 H       
 310 H310         -39.3446    11.6964   -26.2765 H       
 311 H311         -41.5834    10.1122   -25.2737 H       
 312 H312         -41.4823    12.3843   -27.3095 H       
 313 H313         -43.8125    11.1063   -25.8082 H       
 314 H314         -43.9217    12.5190   -26.8854 H       
 315 H315         -43.4752    10.9279   -27.5468 H       
 316 H316         -40.7315    13.0501   -25.0420 H       
 317 H317         -42.3195    13.7583   -25.4227 H       
 318 H318         -42.2103    12.3455   -24.3455 H       
 319 H319         -42.5206     8.6858   -28.5198 H       
 320 H320          18.3756   -18.5860   -15.6837 H       
 321 H321          18.7886   -16.8589   -15.8053 H       
 322 H322          18.4861   -17.5915   -14.2116 H       
 323 H323          16.4235   -17.2549   -16.4363 H       
 324 H324          16.1210   -17.9875   -14.8426 H       
 325 H325          16.7509   -15.8561   -13.7431 H       
 326 H326          17.0534   -15.1234   -15.3368 H       
 327 H327          14.6883   -15.5194   -15.9678 H       
 328 H328          14.3858   -16.2521   -14.3741 H       
 329 H329          15.0156   -14.1206   -13.2746 H       
 330 H330          15.3181   -13.3879   -14.8684 H       
 331 H331          12.9530   -13.7839   -15.4993 H       
 332 H332          12.6505   -14.5166   -13.9056 H       
 333 H333          13.2804   -12.3852   -12.8062 H       
 334 H334          13.5829   -11.6525   -14.3999 H       
 335 H335          11.2178   -12.0485   -15.0308 H       
 336 H336          10.9153   -12.7812   -13.4371 H       
 337 H337          11.5451   -10.6497   -12.3377 H       
 338 H338          11.8476    -9.9170   -13.9314 H       
 339 H339           9.4825   -10.3130   -14.5624 H       
 340 H340           9.1800   -11.0457   -12.9686 H       
 341 H341           9.8099    -8.9142   -11.8692 H       
 342 H342          10.1124    -8.1815   -13.4629 H       
 343 H343           7.7473    -8.5775   -14.0939 H       
 344 H344           7.4448    -9.3102   -12.5002 H       
 345 H345           8.0746    -7.1788   -11.4007 H       
 346 H346           8.3771    -6.4461   -12.9944 H       
 347 H347           6.0120    -6.8421   -13.6254 H       
 348 H348           5.7095    -7.5748   -12.0317 H       
 349 H349           6.6419    -4.7106   -12.5259 H       
 350 H350           6.3394    -5.4433   -10.9322 H       
@<TRIPOS>BOND
   1    1    2 2
   2    1    4 1
   3    1   14 am
   4    3    4 1
   5    3  165 1
   6    3  166 1
   7    4    5 1
   8    4  167 1
   9    5    6 1
  10    5  168 1
  11    5  169 1
  12    6    7 1
  13    6  170 1
  14    6  171 1
  15    7    8 1
  16    7  172 1
  17    7  173 1
  18    8    9 1
  19    8  174 1
  20    9   10 2
  21    9   11 1
  22   10  175 1
  23   11  148 am
  24   11  176 1
  25   12   13 2
  26   12   15 1
  27   12   22 am
  28   14   15 1
  29   14  177 1
  30   15   16 1
  31   15  178 1
  32   16   17 1
  33   16  179 1
  34   16  180 1
  35   17   18 1
  36   17   19 1
  37   17  181 1
  38   18  182 1
  39   18  183 1
  40   18  184 1
  41   19  185 1
  42   19  186 1
  43   19  187 1
  44   20   21 2
  45   20   23 1
  46   20   33 am
  47   22   23 1
  48   22  188 1
  49   23   24 1
  50   23  189 1
  51   24   25 1
  52   24  190 1
  53   24  191 1
  54   25   26 1
  55   25  192 1
  56   25  193 1
  57   26   27 1
  58   26  194 1
  59   26  195 1
  60   27   28 1
  61   27  196 1
  62   28   29 2
  63   28   30 1
  64   29  197 1
  65   30  198 1
  66   30  199 1
  67   31   32 2
  68   31   34 1
  69   31   41 am
  70   33   34 1
  71   33  200 1
  72   34   35 1
  73   34  201 1
  74   35   36 1
  75   35  202 1
  76   35  203 1
  77   36   37 2
  78   36   38 am
  79   38  204 1
  80   38  205 1
  81   39   40 2
  82   39   42 1
  83   39   46 am
  84   41   42 1
  85   41  206 1
  86   42   43 1
  87   42  207 1
  88   43  208 1
  89   43  209 1
  90   43  210 1
  91   44   45 2
  92   44   47 1
  93   44   54 am
  94   46   47 1
  95   46  211 1
  96   47   48 1
  97   47  212 1
  98   48   49 1
  99   48  213 1
 100   48  214 1
 101   49   50 2
 102   49   51 am
 103   51  215 1
 104   51  216 1
 105   52   53 2
 106   52   55 1
 107   52   65 am
 108   54   55 1
 109   54  217 1
 110   55   56 1
 111   55  218 1
 112   56   57 1
 113   56  219 1
 114   56  220 1
 115   57   58 1
 116   57  221 1
 117   57  222 1
 118   58   59 1
 119   58  223 1
 120   58  224 1
 121   59   60 1
 122   59  225 1
 123   60   61 2
 124   60   62 1
 125   61  226 1
 126   62  227 1
 127   62  228 1
 128   63   64 2
 129   63   66 1
 130   63   76 am
 131   65   66 1
 132   65  229 1
 133   66   67 1
 134   66  230 1
 135   67   68 1
 136   67  231 1
 137   67  232 1
 138   68   69 1
 139   68  233 1
 140   68  234 1
 141   69   70 1
 142   69  235 1
 143   69  236 1
 144   70   71 1
 145   70  237 1
 146   71   72 2
 147   71   73 1
 148   72  238 1
 149   73  239 1
 150   73  240 1
 151   74   75 2
 152   74   83 am
 153   74   77 1
 154   76   77 1
 155   76   80 1
 156   77   78 1
 157   77  241 1
 158   78   79 1
 159   78  242 1
 160   78  243 1
 161   79   80 1
 162   79  244 1
 163   79  245 1
 164   80  246 1
 165   80  247 1
 166   81   82 2
 167   81   84 1
 168   81   91 am
 169   83   84 1
 170   83  248 1
 171   84   85 1
 172   84  249 1
 173   85   86 1
 174   85  250 1
 175   85  251 1
 176   86   87 2
 177   86   88 am
 178   88  252 1
 179   88  253 1
 180   89   90 2
 181   89   92 1
 182   89  102 am
 183   91   92 1
 184   91  254 1
 185   92   93 1
 186   92  255 1
 187   93   94 1
 188   93  256 1
 189   93  257 1
 190   94   95 1
 191   94  258 1
 192   94  259 1
 193   95   96 1
 194   95  260 1
 195   95  261 1
 196   96   97 1
 197   96  262 1
 198   97   98 2
 199   97   99 1
 200   98  263 1
 201   99  264 1
 202   99  265 1
 203  100  101 2
 204  100  103 1
 205  100  110 am
 206  102  103 1
 207  102  266 1
 208  103  104 1
 209  103  267 1
 210  104  105 1
 211  104  268 1
 212  104  269 1
 213  105  106 2
 214  105  107 am
 215  107  270 1
 216  107  271 1
 217  108  109 2
 218  108  111 1
 219  108  119 am
 220  110  111 1
 221  110  272 1
 222  111  112 1
 223  111  273 1
 224  112  113 1
 225  112  274 1
 226  112  275 1
 227  113  114 1
 228  113  276 1
 229  113  277 1
 230  114  115 1
 231  114  278 1
 232  114  279 1
 233  115  116 1
 234  115  280 1
 235  115  281 1
 236  116  282 1
 237  116  283 1
 238  117  118 2
 239  117  120 1
 240  117  124 am
 241  119  120 1
 242  119  284 1
 243  120  121 1
 244  120  285 1
 245  121  286 1
 246  121  287 1
 247  121  288 1
 248  122  123 2
 249  122  125 1
 250  122  131 am
 251  124  125 1
 252  124  289 1
 253  125  126 1
 254  125  290 1
 255  126  127 1
 256  126  128 1
 257  126  291 1
 258  127  292 1
 259  127  293 1
 260  127  294 1
 261  128  295 1
 262  128  296 1
 263  128  297 1
 264  129  130 2
 265  129  132 1
 266  129  142 am
 267  131  132 1
 268  131  298 1
 269  132  133 1
 270  132  299 1
 271  133  134 1
 272  133  300 1
 273  133  301 1
 274  134  135 1
 275  134  302 1
 276  134  303 1
 277  135  136 1
 278  135  304 1
 279  135  305 1
 280  136  137 1
 281  136  306 1
 282  137  138 2
 283  137  139 1
 284  138  307 1
 285  139  308 1
 286  139  309 1
 287  140  141 2
 288  140  143 1
 289  140  147 1
 290  142  143 1
 291  142  310 1
 292  143  144 1
 293  143  311 1
 294  144  145 1
 295  144  146 1
 296  144  312 1
 297  145  313 1
 298  145  314 1
 299  145  315 1
 300  146  316 1
 301  146  317 1
 302  146  318 1
 303  147  319 1
 304  148  149 2
 305  148  164 1
 306  150  151 1
 307  150  320 1
 308  150  321 1
 309  150  322 1
 310  151  152 1
 311  151  323 1
 312  151  324 1
 313  152  153 1
 314  152  325 1
 315  152  326 1
 316  153  154 1
 317  153  327 1
 318  153  328 1
 319  154  155 1
 320  154  329 1
 321  154  330 1
 322  155  156 1
 323  155  331 1
 324  155  332 1
 325  156  157 1
 326  156  333 1
 327  156  334 1
 328  157  158 1
 329  157  335 1
 330  157  336 1
 331  158  159 1
 332  158  337 1
 333  158  338 1
 334  159  160 1
 335  159  339 1
 336  159  340 1
 337  160  161 1
 338  160  341 1
 339  160  342 1
 340  161  162 1
 341  161  343 1
 342  161  344 1
 343  162  163 1
 344  162  345 1
 345  162  346 1
 346  163  164 1
 347  163  347 1
 348  163  348 1
 349  164  349 1
 350  164  350 1

#	End of record

