#	Name: ASD01810639
#	Creating user name:	WinNT
#	Creation time:	15. 06. 2019 19:25

#	Modifying user name:	WinNT
#	Modification time:	15. 06. 2019 19:25

#	Program:	/corina/corina34_cracker 3.40 0067  02.08.2006

@<TRIPOS>MOLECULE
ASD01810639
  28   28    0    0    0
SMALL
NO_CHARGES


@<TRIPOS>ATOM
   1 C1             0.1678     1.4545     0.5772 C.2     
   2 C2            -0.0816     0.0725     0.1420 C.2     
   3 C3             1.0443    -0.7926    -0.2394 C.2     
   4 O4             1.2913     1.9155     0.5227 O.2     
   5 O5            -0.8504     2.2122     1.0315 O.3     
   6 O6             2.1694    -0.3339    -0.3035 O.2     
   7 N7            -1.3144    -0.3908     0.0937 N.2     
   8 N8            -2.3105     0.4040     0.2942 N.pl3   
   9 C9             0.8096    -2.2185    -0.5448 C.ar    
  10 C10            1.8863    -3.0597    -0.8459 C.ar    
  11 C11            1.6573    -4.3931    -1.1306 C.ar    
  12 C12            0.3686    -4.8939    -1.1178 C.ar    
  13 C13           -0.7005    -4.0661    -0.8206 C.ar    
  14 C14           -0.4878    -2.7354    -0.5289 C.ar    
  15 F15            3.1456    -2.5705    -0.8589 F       
  16 C16           -0.5307     3.5671     1.4442 C.3     
  17 C17           -1.8031     4.2672     1.9258 C.3     
  18 H18           -2.1719     1.3641     0.2971 H       
  19 H19           -3.1980     0.0416     0.4421 H       
  20 H20            2.4865    -5.0446    -1.3637 H       
  21 H21            0.1950    -5.9362    -1.3413 H       
  22 H22           -1.7041    -4.4651    -0.8127 H       
  23 H23           -1.3233    -2.0930    -0.2930 H       
  24 H24            0.1970     3.5378     2.2552 H       
  25 H25           -0.1120     4.1149     0.6000 H       
  26 H26           -1.5631     5.2843     2.2357 H       
  27 H27           -2.5308     4.2966     1.1149 H       
  28 H28           -2.2218     3.7195     2.7701 H       
@<TRIPOS>BOND
   1    1    2 1
   2    1    4 2
   3    1    5 1
   4    2    3 1
   5    2    7 2
   6    3    6 2
   7    3    9 1
   8    5   16 1
   9    7    8 1
  10    8   18 1
  11    8   19 1
  12    9   10 ar
  13    9   14 ar
  14   10   11 ar
  15   10   15 1
  16   11   12 ar
  17   11   20 1
  18   12   13 ar
  19   12   21 1
  20   13   14 ar
  21   13   22 1
  22   14   23 1
  23   16   17 1
  24   16   24 1
  25   16   25 1
  26   17   26 1
  27   17   27 1
  28   17   28 1

#	End of record

