#	Name: ASD03091501
#	Creating user name:	WinNT
#	Creation time:	15. 06. 2019 20:30

#	Modifying user name:	WinNT
#	Modification time:	15. 06. 2019 20:30

#	Program:	/corina/corina34_cracker 3.40 0067  02.08.2006

@<TRIPOS>MOLECULE
ASD03091501
  49   52    0    0    0
SMALL
NO_CHARGES


@<TRIPOS>ATOM
   1 N1            -0.0091     1.3376    -0.0440 N.pl3   
   2 C2             0.0140    -0.0187    -0.0546 C.2     
   3 C3             1.1494    -0.7206     0.2201 C.2     
   4 C4             2.3842     0.0188     0.5275 C.2     
   5 C5             2.3771     1.4614     0.2502 C.ar    
   6 C6             3.5474     2.2325     0.2612 C.ar    
   7 N7             3.4817     3.5296    -0.0018 N.ar    
   8 C8             2.3383     4.1339    -0.2776 C.ar    
   9 C9             1.1441     3.4484    -0.3061 C.ar    
  10 C10            1.1447     2.0797    -0.0365 C.ar    
  11 N11            4.7663     1.6419     0.5461 N.pl3   
  12 C12            5.9451     2.3853     0.4394 C.ar    
  13 C13            6.9975     2.1511     1.3152 C.ar    
  14 C14            8.1608     2.8876     1.2070 C.ar    
  15 C15            8.2784     3.8576     0.2284 C.ar    
  16 C16            7.2324     4.0936    -0.6448 C.ar    
  17 C17            6.0689     3.3562    -0.5464 C.ar    
  18 O18            3.3654    -0.5389     0.9903 O.2     
  19 C19           -1.3009     2.0285    -0.0467 C.3     
  20 C20           -1.7598     2.2577     1.3948 C.3     
  21 C21            1.1407    -2.2036     0.2099 C.ar    
  22 C22            1.8922    -2.9001    -0.7353 C.ar    
  23 C23            1.8819    -4.2793    -0.7421 C.ar    
  24 C24            1.1244    -4.9738     0.1909 C.ar    
  25 C25            0.3750    -4.2833     1.1334 C.ar    
  26 C26            0.3855    -2.9041     1.1492 C.ar    
  27 O27            1.1160    -6.3329     0.1813 O.3     
  28 C28            0.3147    -6.9838     1.1694 C.3     
  29 H29           -0.8929    -0.5573    -0.2869 H       
  30 H30            2.3410     5.1936    -0.4859 H       
  31 H31            0.2217     3.9624    -0.5330 H       
  32 H32            4.8025     0.7120     0.8198 H       
  33 H33            6.9060     1.3942     2.0802 H       
  34 H34            8.9794     2.7060     1.8877 H       
  35 H35            9.1891     4.4323     0.1462 H       
  36 H36            7.3273     4.8524    -1.4075 H       
  37 H37            5.2544     3.5374    -1.2320 H       
  38 H38           -1.1984     2.9887    -0.5523 H       
  39 H39           -2.0378     1.4192    -0.5701 H       
  40 H40           -2.7209     2.7717     1.3928 H       
  41 H41           -1.8623     1.2975     1.9004 H       
  42 H42           -1.0229     2.8670     1.9181 H       
  43 H43            2.4815    -2.3603    -1.4617 H       
  44 H44            2.4637    -4.8195    -1.4743 H       
  45 H45           -0.2137    -4.8266     1.8578 H       
  46 H46           -0.1943    -2.3675     1.8856 H       
  47 H47            0.3975    -8.0641     1.0504 H       
  48 H48            0.6616    -6.7000     2.1630 H       
  49 H49           -0.7262    -6.6836     1.0485 H       
@<TRIPOS>BOND
   1    1    2 1
   2    1   10 1
   3    1   19 1
   4    2    3 2
   5    2   29 1
   6    3    4 1
   7    3   21 1
   8    4    5 1
   9    4   18 2
  10    5    6 ar
  11    5   10 ar
  12    6    7 ar
  13    6   11 1
  14    7    8 ar
  15    8    9 ar
  16    8   30 1
  17    9   10 ar
  18    9   31 1
  19   11   12 1
  20   11   32 1
  21   12   13 ar
  22   12   17 ar
  23   13   14 ar
  24   13   33 1
  25   14   15 ar
  26   14   34 1
  27   15   16 ar
  28   15   35 1
  29   16   17 ar
  30   16   36 1
  31   17   37 1
  32   19   20 1
  33   19   38 1
  34   19   39 1
  35   20   40 1
  36   20   41 1
  37   20   42 1
  38   21   22 ar
  39   21   26 ar
  40   22   23 ar
  41   22   43 1
  42   23   24 ar
  43   23   44 1
  44   24   25 ar
  45   24   27 1
  46   25   26 ar
  47   25   45 1
  48   26   46 1
  49   27   28 1
  50   28   47 1
  51   28   48 1
  52   28   49 1

#	End of record

