#	Name: ASD07300268
#	Creating user name:	WinNT
#	Creation time:	15. 06. 2019 21:09

#	Modifying user name:	WinNT
#	Modification time:	15. 06. 2019 21:09

#	Program:	/corina/corina34_cracker 3.40 0067  02.08.2006

@<TRIPOS>MOLECULE
ASD07300268
  26   27    0    0    0
SMALL
NO_CHARGES


@<TRIPOS>ATOM
   1 C1            -0.0184     1.5028     0.0103 C.2     
   2 C2             0.0021    -0.0041     0.0020 C.3     
   3 O3             1.0197     2.1211     0.0037 O.2     
   4 O4            -1.1898     2.1580     0.0194 O.3     
   5 C5             2.1733    -0.7410     1.0892 C.ar    
   6 C6             3.4168    -1.1616     0.5840 C.ar    
   7 C7             4.4294    -1.5110     1.4819 C.ar    
   8 C8             4.1594    -1.4263     2.8350 C.ar    
   9 C9             2.9095    -1.0031     3.2572 C.ar    
  10 N10            1.9681    -0.6788     2.3947 N.ar    
  11 C11            2.1423    -0.7267    -1.1203 C.2     
  12 N12            1.3897    -0.4735    -0.0138 N.pl3   
  13 N13            3.3319    -1.1255    -0.7699 N.2     
  14 Cl14           1.5980    -0.5393    -2.7581 Cl      
  15 C15           -1.1335     3.6089     0.0270 C.3     
  16 C16           -2.5551     4.1744     0.0369 C.3     
  17 H17           -0.4983    -0.3791     0.8948 H       
  18 H18           -0.5153    -0.3696    -0.8850 H       
  19 H19            5.3959    -1.8384     1.1283 H       
  20 H20            4.9175    -1.6885     3.5581 H       
  21 H21            2.7026    -0.9383     4.3152 H       
  22 H22           -0.6017     3.9472     0.9164 H       
  23 H23           -0.6102     3.9569    -0.8636 H       
  24 H24           -2.5128     5.2636     0.0426 H       
  25 H25           -3.0869     3.8361    -0.8525 H       
  26 H26           -3.0784     3.8265     0.9275 H       
@<TRIPOS>BOND
   1    1    2 1
   2    1    3 2
   3    1    4 1
   4    2   12 1
   5    2   17 1
   6    2   18 1
   7    4   15 1
   8    5    6 ar
   9    5   10 ar
  10    5   12 1
  11    6    7 ar
  12    6   13 1
  13    7    8 ar
  14    7   19 1
  15    8    9 ar
  16    8   20 1
  17    9   10 ar
  18    9   21 1
  19   11   12 1
  20   11   13 2
  21   11   14 1
  22   15   16 1
  23   15   22 1
  24   15   23 1
  25   16   24 1
  26   16   25 1
  27   16   26 1

#	End of record

