#	Name: ASD03092481
#	Creating user name:	WinNT
#	Creation time:	15. 06. 2019 20:32

#	Modifying user name:	WinNT
#	Modification time:	15. 06. 2019 20:32

#	Program:	/corina/corina34_cracker 3.40 0067  02.08.2006

@<TRIPOS>MOLECULE
ASD03092481
  56   59    0    0    0
SMALL
NO_CHARGES


@<TRIPOS>ATOM
   1 C1             0.6731     1.6435    -0.5653 C.3     
   2 C2             0.8710     0.1310    -0.6835 C.3     
   3 C3             2.0857     1.0600    -0.6348 C.3     
   4 C4            -0.0891     3.8319    -1.4479 C.2     
   5 C5             0.1542     2.3865    -1.7981 C.3     
   6 O6             0.1308     4.2287    -0.3231 O.2     
   7 N7            -0.5512     4.6836    -2.3847 N.am    
   8 C8            -0.7877     6.0888    -2.0443 C.3     
   9 S9            -1.4902     8.2015    -5.3671 S.3     
  10 C10           -2.8871     7.5128    -4.6625 C.2     
  11 N11           -2.5706     6.8465    -3.5930 N.2     
  12 C12           -1.2988     6.8206    -3.2585 C.2     
  13 C13           -0.4904     7.5056    -4.0943 C.2     
  14 N14           -4.1707     7.6461    -5.1596 N.3     
  15 C15           -5.1474     7.7764    -4.0685 C.3     
  16 C16           -6.5436     7.9811    -4.6623 C.3     
  17 O17           -6.8494     6.8904    -5.5354 O.3     
  18 C18           -5.9187     6.7348    -6.6101 C.3     
  19 C19           -4.5162     6.5174    -6.0360 C.3     
  20 C20           -4.7817     8.9791    -3.1964 C.3     
  21 C21            2.9575     8.9863    -3.9427 C.ar    
  22 C22            1.5880     8.9012    -4.0702 C.ar    
  23 C23            0.9730     7.6464    -3.9652 C.ar    
  24 C24            1.7866     6.5291    -3.7337 C.ar    
  25 C25            3.1483     6.7069    -3.6193 C.ar    
  26 N26            3.6868     7.9076    -3.7249 N.ar    
  27 C27            4.0350     5.5141    -3.3698 C.3     
  28 C28            3.6326    10.3286    -4.0597 C.3     
  29 H29            0.3364     2.0335     0.3952 H       
  30 H30            0.6645    -0.4741     0.1993 H       
  31 H31            0.6316    -0.3348    -1.6395 H       
  32 H32            2.6454     1.2054    -1.5588 H       
  33 H33            2.6784     1.0660     0.2800 H       
  34 H34            0.8934     2.3256    -2.5968 H       
  35 H35           -0.7786     1.9312    -2.1308 H       
  36 H36           -0.7270     4.3663    -3.2843 H       
  37 H37           -1.5269     6.1496    -1.2455 H       
  38 H38            0.1451     6.5440    -1.7116 H       
  39 H39           -5.1389     6.8705    -3.4624 H       
  40 H40           -7.2787     8.0210    -3.8585 H       
  41 H41           -6.5668     8.9147    -5.2243 H       
  42 H42           -6.2019     5.8734    -7.2150 H       
  43 H43           -5.9237     7.6322    -7.2287 H       
  44 H44           -3.7950     6.4553    -6.8509 H       
  45 H45           -4.4976     5.5914    -5.4613 H       
  46 H46           -4.8154     9.8876    -3.7978 H       
  47 H47           -5.4925     9.0611    -2.3741 H       
  48 H48           -3.7768     8.8455    -2.7960 H       
  49 H49            0.9977     9.7879    -4.2480 H       
  50 H50            1.3530     5.5439    -3.6459 H       
  51 H51            4.3516     5.0910    -4.3231 H       
  52 H52            4.9115     5.8255    -2.8015 H       
  53 H53            3.4833     4.7632    -2.8043 H       
  54 H54            3.6924    10.7923    -3.0750 H       
  55 H55            4.6376    10.1961    -4.4605 H       
  56 H56            3.0563    10.9682    -4.7281 H       
@<TRIPOS>BOND
   1    1    2 1
   2    1    3 1
   3    1    5 1
   4    1   29 1
   5    2    3 1
   6    2   30 1
   7    2   31 1
   8    3   32 1
   9    3   33 1
  10    4    5 1
  11    4    6 2
  12    4    7 am
  13    5   34 1
  14    5   35 1
  15    7    8 1
  16    7   36 1
  17    8   12 1
  18    8   37 1
  19    8   38 1
  20    9   10 1
  21    9   13 1
  22   10   11 2
  23   10   14 1
  24   11   12 1
  25   12   13 2
  26   13   23 1
  27   14   15 1
  28   14   19 1
  29   15   16 1
  30   15   20 1
  31   15   39 1
  32   16   17 1
  33   16   40 1
  34   16   41 1
  35   17   18 1
  36   18   19 1
  37   18   42 1
  38   18   43 1
  39   19   44 1
  40   19   45 1
  41   20   46 1
  42   20   47 1
  43   20   48 1
  44   21   22 ar
  45   21   26 ar
  46   21   28 1
  47   22   23 ar
  48   22   49 1
  49   23   24 ar
  50   24   25 ar
  51   24   50 1
  52   25   26 ar
  53   25   27 1
  54   27   51 1
  55   27   52 1
  56   27   53 1
  57   28   54 1
  58   28   55 1
  59   28   56 1

#	End of record

