#	Name: ASD06342006
#	Creating user name:	WinNT
#	Creation time:	15. 06. 2019 21:06

#	Modifying user name:	WinNT
#	Modification time:	15. 06. 2019 21:06

#	Program:	/corina/corina34_cracker 3.40 0067  02.08.2006

@<TRIPOS>MOLECULE
ASD06342006
  34   35    0    0    0
SMALL
NO_CHARGES


@<TRIPOS>ATOM
   1 C1            -0.1013     1.2617    -0.4135 C.ar    
   2 C2             0.8757     1.5627     0.5169 C.ar    
   3 C3             2.0732     0.8721     0.5098 C.ar    
   4 C4             2.2934    -0.1199    -0.4274 C.ar    
   5 C5             1.3159    -0.4216    -1.3572 C.ar    
   6 C6             0.1190     0.2700    -1.3510 C.ar    
   7 S7            -1.6305     2.1370    -0.3998 S.o     
   8 O8            -2.0373     2.0926     1.0662 O.3     
   9 N9            -1.2066     3.5567    -0.5879 N.am    
  10 N10            3.5759    -0.8588    -0.4357 N.pl3   
  11 O11            4.4373    -0.5927     0.3833 O.2     
  12 O12            3.7699    -1.7328    -1.2615 O.2     
  13 S13            0.3689     3.9085    -0.9570 S.o2    
  14 O14            1.0365     4.1071     0.2816 O.2     
  15 O15            0.7812     2.9446    -1.9163 O.2     
  16 C16            0.3763     5.4657    -1.7815 C.ar    
  17 C17            0.5015     6.6332    -1.0519 C.ar    
  18 C18            0.5074     7.8549    -1.6980 C.ar    
  19 C19            0.3880     7.9094    -3.0753 C.ar    
  20 C20            0.2627     6.7406    -3.8050 C.ar    
  21 C21            0.2626     5.5191    -3.1582 C.ar    
  22 Cl22           0.3947     9.4436    -3.8876 Cl      
  23 C23           -3.2748     2.7500     1.3462 C.3     
  24 H24            0.7037     2.3377     1.2491 H       
  25 H25            2.8368     1.1078     1.2362 H       
  26 H26            1.4882    -1.1961    -2.0899 H       
  27 H27           -0.6444     0.0346    -2.0777 H       
  28 H28            0.5944     6.5906     0.0233 H       
  29 H29            0.6049     8.7670    -1.1279 H       
  30 H30            0.1694     6.7824    -4.8801 H       
  31 H31            0.1693     4.6064    -3.7280 H       
  32 H32           -3.4939     2.6738     2.4112 H       
  33 H33           -3.2000     3.8004     1.0648 H       
  34 H34           -4.0745     2.2772     0.7760 H       
@<TRIPOS>BOND
   1    1    2 ar
   2    1    6 ar
   3    1    7 1
   4    2    3 ar
   5    2   24 1
   6    3    4 ar
   7    3   25 1
   8    4    5 ar
   9    4   10 1
  10    5    6 ar
  11    5   26 1
  12    6   27 1
  13    7    8 1
  14    7    9 2
  15    8   23 1
  16    9   13 am
  17   10   11 2
  18   10   12 2
  19   13   14 2
  20   13   15 2
  21   13   16 1
  22   16   17 ar
  23   16   21 ar
  24   17   18 ar
  25   17   28 1
  26   18   19 ar
  27   18   29 1
  28   19   20 ar
  29   19   22 1
  30   20   21 ar
  31   20   30 1
  32   21   31 1
  33   23   32 1
  34   23   33 1
  35   23   34 1

#	End of record

