#	Name: ASD03180059
#	Creating user name:	WinNT
#	Creation time:	15. 06. 2019 20:33

#	Modifying user name:	WinNT
#	Modification time:	15. 06. 2019 20:33

#	Program:	/corina/corina34_cracker 3.40 0067  02.08.2006

@<TRIPOS>MOLECULE
ASD03180059
  38   40    0    0    0
SMALL
NO_CHARGES


@<TRIPOS>ATOM
   1 C1             0.9937    -0.4709     0.2651 C.ar    
   2 C2             0.0973    -0.0528    -0.7014 C.ar    
   3 C3             0.3556     1.0861    -1.4421 C.ar    
   4 C4             1.5104     1.8099    -1.2187 C.ar    
   5 C5             2.4130     1.3926    -0.2486 C.ar    
   6 C6             2.1504     0.2481     0.4937 C.ar    
   7 N7             3.5828     2.1224    -0.0202 N.pl3   
   8 N8             4.6100     4.2729    -0.0413 N.2     
   9 C9             4.4020     5.5841    -0.1579 C.2     
  10 C10            3.5672     3.5051    -0.1173 C.2     
  11 S11            2.1290     4.4906    -0.3638 S.3     
  12 C12            3.1194     5.9477    -0.3421 C.2     
  13 C13            5.5026     6.5699    -0.0894 C.2     
  14 S14            5.3403     8.3188    -0.2294 S.3     
  15 C15            7.0285     8.5014    -0.0324 C.2     
  16 N16            7.5909     7.3494     0.1164 N.2     
  17 C17            6.8104     6.2905     0.0976 C.2     
  18 C18            7.7570     9.8206    -0.0329 C.3     
  19 C19            7.3315     4.8865     0.2656 C.3     
  20 C20           -0.6239     1.5377    -2.4946 C.3     
  21 C21            0.7050    -1.7092     1.0741 C.3     
  22 H22           -0.8063    -0.6171    -0.8783 H       
  23 H23            1.7117     2.6990    -1.7977 H       
  24 H24            2.8500    -0.0790     1.2486 H       
  25 H25            4.4056     1.6613     0.2062 H       
  26 H26            2.7589     6.9592    -0.4569 H       
  27 H27            7.8063    10.2088     0.9844 H       
  28 H28            8.7671     9.6777    -0.4166 H       
  29 H29            7.2244    10.5295    -0.6669 H       
  30 H30            7.5868     4.4744    -0.7107 H       
  31 H31            8.2198     4.9018     0.8971 H       
  32 H32            6.5649     4.2677     0.7319 H       
  33 H33           -1.3519     2.2142    -2.0470 H       
  34 H34           -0.0888     2.0550    -3.2909 H       
  35 H35           -1.1395     0.6704    -2.9071 H       
  36 H36            1.1239    -2.5793     0.5686 H       
  37 H37            1.1552    -1.6110     2.0619 H       
  38 H38           -0.3731    -1.8328     1.1768 H       
@<TRIPOS>BOND
   1    1    2 ar
   2    1    6 ar
   3    1   21 1
   4    2    3 ar
   5    2   22 1
   6    3    4 ar
   7    3   20 1
   8    4    5 ar
   9    4   23 1
  10    5    6 ar
  11    5    7 1
  12    6   24 1
  13    7   10 1
  14    7   25 1
  15    8   10 2
  16    8    9 1
  17    9   12 2
  18    9   13 1
  19   10   11 1
  20   11   12 1
  21   12   26 1
  22   13   14 1
  23   13   17 2
  24   14   15 1
  25   15   16 2
  26   15   18 1
  27   16   17 1
  28   17   19 1
  29   18   27 1
  30   18   28 1
  31   18   29 1
  32   19   30 1
  33   19   31 1
  34   19   32 1
  35   20   33 1
  36   20   34 1
  37   20   35 1
  38   21   36 1
  39   21   37 1
  40   21   38 1

#	End of record

