#	Name: ASD01811635
#	Creating user name:	WinNT
#	Creation time:	15. 06. 2019 19:27

#	Modifying user name:	WinNT
#	Modification time:	15. 06. 2019 19:27

#	Program:	/corina/corina34_cracker 3.40 0067  02.08.2006

@<TRIPOS>MOLECULE
ASD01811635
  62   67    0    0    0
SMALL
NO_CHARGES


@<TRIPOS>ATOM
   1 C1            -0.0167     1.3784     0.0096 C.ar    
   2 C2             0.0021    -0.0041     0.0020 C.ar    
   3 C3             1.2024    -0.6843    -0.0124 C.ar    
   4 C4             2.4053     0.0173    -0.0199 C.ar    
   5 C5             2.3742     1.4091    -0.0130 C.ar    
   6 C6             1.1742     2.0835     0.0020 C.ar    
   7 N7             3.7261    -0.4362    -0.0340 N.am    
   8 C8             4.6116     0.5786    -0.0379 C.2     
   9 C9             3.8099     1.8517    -0.0253 C.3     
  10 C10            4.1226     2.7250    -1.2431 C.3     
  11 N11            4.5805     4.0342    -0.7220 N.3     
  12 C12            5.1224     3.7640     0.6353 C.3     
  13 C13            4.1428     2.7061     1.2080 C.3     
  14 C14            5.6096     4.6169    -1.5934 C.3     
  15 C15            5.8730     6.0410    -1.1768 C.ar    
  16 C16            6.8449     6.3166    -0.2331 C.ar    
  17 C17            7.0865     7.6229     0.1490 C.ar    
  18 C18            6.3565     8.6537    -0.4128 C.ar    
  19 C19            5.3853     8.3782    -1.3571 C.ar    
  20 C20            5.1467     7.0722    -1.7424 C.ar    
  21 O21            5.8208     0.4845    -0.0485 O.2     
  22 C22            4.1045    -1.8515    -0.0430 C.3     
  23 C23            4.2215    -2.3311    -1.4668 C.ar    
  24 C24            5.3666    -2.0550    -2.1966 C.ar    
  25 C25            5.4779    -2.4936    -3.5028 C.ar    
  26 C26            4.4366    -3.2137    -4.0836 C.ar    
  27 C27            3.2883    -3.4878    -3.3445 C.ar    
  28 C28            3.1885    -3.0501    -2.0389 C.ar    
  29 F29            6.3750    -1.3560    -1.6312 F       
  30 C30            4.5501    -3.6870    -5.4863 C.2     
  31 C31            5.6463    -3.4839    -6.3471 C.2     
  32 N32            5.3722    -4.0481    -7.4934 N.2     
  33 N33            4.1009    -4.6290    -7.4106 N.pl3   
  34 C34            3.6141    -4.4030    -6.1738 C.2     
  35 C35            3.4196    -5.3608    -8.4814 C.3     
  36 H36           -0.9585     1.9068     0.0169 H       
  37 H37           -0.9273    -0.5542     0.0077 H       
  38 H38            1.2090    -1.7643    -0.0174 H       
  39 H39            1.1621     3.1634     0.0072 H       
  40 H40            4.9102     2.2648    -1.8397 H       
  41 H41            3.2252     2.8573    -1.8475 H       
  42 H42            6.1322     3.3584     0.5721 H       
  43 H43            5.1081     4.6694     1.2420 H       
  44 H44            3.2452     3.1834     1.6013 H       
  45 H45            4.6294     2.1040     1.9753 H       
  46 H46            6.5288     4.0374    -1.5079 H       
  47 H47            5.2634     4.5987    -2.6268 H       
  48 H48            7.4152     5.5113     0.2058 H       
  49 H49            7.8453     7.8381     0.8868 H       
  50 H50            6.5448     9.6742    -0.1137 H       
  51 H51            4.8148     9.1834    -1.7957 H       
  52 H52            4.3879     6.8570    -2.4802 H       
  53 H53            5.0627    -1.9746     0.4618 H       
  54 H54            3.3432    -2.4344     0.4753 H       
  55 H55            6.3702    -2.2782    -4.0718 H       
  56 H56            2.4783    -4.0455    -3.7910 H       
  57 H57            2.2982    -3.2630    -1.4658 H       
  58 H58            6.5548    -2.9536    -6.1025 H       
  59 H59            2.6543    -4.7248    -5.7975 H       
  60 H60            3.6724    -6.4191    -8.4160 H       
  61 H61            2.3417    -5.2376    -8.3768 H       
  62 H62            3.7379    -4.9702    -9.4479 H       
@<TRIPOS>BOND
   1    1    2 ar
   2    1    6 ar
   3    1   36 1
   4    2    3 ar
   5    2   37 1
   6    3    4 ar
   7    3   38 1
   8    4    5 ar
   9    4    7 1
  10    5    6 ar
  11    5    9 1
  12    6   39 1
  13    7    8 am
  14    7   22 1
  15    8    9 1
  16    8   21 2
  17    9   10 1
  18    9   13 1
  19   10   11 1
  20   10   40 1
  21   10   41 1
  22   11   12 1
  23   11   14 1
  24   12   13 1
  25   12   42 1
  26   12   43 1
  27   13   44 1
  28   13   45 1
  29   14   15 1
  30   14   46 1
  31   14   47 1
  32   15   16 ar
  33   15   20 ar
  34   16   17 ar
  35   16   48 1
  36   17   18 ar
  37   17   49 1
  38   18   19 ar
  39   18   50 1
  40   19   20 ar
  41   19   51 1
  42   20   52 1
  43   22   23 1
  44   22   53 1
  45   22   54 1
  46   23   24 ar
  47   23   28 ar
  48   24   25 ar
  49   24   29 1
  50   25   26 ar
  51   25   55 1
  52   26   27 ar
  53   26   30 1
  54   27   28 ar
  55   27   56 1
  56   28   57 1
  57   30   31 1
  58   30   34 2
  59   31   32 2
  60   31   58 1
  61   32   33 1
  62   33   34 1
  63   33   35 1
  64   34   59 1
  65   35   60 1
  66   35   61 1
  67   35   62 1

#	End of record

