#	Name: ASD03091843
#	Creating user name:	WinNT
#	Creation time:	15. 06. 2019 20:31

#	Modifying user name:	WinNT
#	Modification time:	15. 06. 2019 20:31

#	Program:	/corina/corina34_cracker 3.40 0067  02.08.2006

@<TRIPOS>MOLECULE
ASD03091843
  46   50    0    0    0
SMALL
NO_CHARGES


@<TRIPOS>ATOM
   1 N1            -0.0169     1.3943     0.0097 N.pl3   
   2 N2             0.0021    -0.0041     0.0020 N.2     
   3 C3             1.2309    -0.4351    -0.0120 C.2     
   4 C4             2.1113     0.7295    -0.0142 C.ar    
   5 C5             3.4991     0.8952    -0.0265 C.ar    
   6 C6             4.0323     2.1747    -0.0247 C.ar    
   7 C7             3.1862     3.2908    -0.0102 C.ar    
   8 C8             1.8319     3.1372     0.0023 C.ar    
   9 C9             1.2717     1.8606    -0.0001 C.ar    
  10 C10            5.5035     2.3624    -0.0377 C.ar    
  11 C11            6.0467     3.6513    -0.0360 C.ar    
  12 C12            7.4250     3.7743    -0.0480 C.ar    
  13 C13            8.1864     2.6068    -0.0611 C.ar    
  14 N14            7.5868     1.4270    -0.0617 N.ar    
  15 N15            6.3088     1.3088    -0.0455 N.ar    
  16 O16            9.5413     2.6799    -0.0736 O.3     
  17 C17           12.4121     0.3413    -0.6990 C.3     
  18 C18           11.5882     1.6332    -0.8203 C.3     
  19 C19           10.2576     1.4434    -0.0865 C.3     
  20 C20           10.5208     0.9921     1.3530 C.3     
  21 C21           11.4171    -0.2564     1.3269 C.3     
  22 C22           10.8272    -1.2404     0.2905 C.3     
  23 C23           11.4847    -0.8455    -1.0482 C.3     
  24 N24           12.7228     0.1504     0.7427 N.3     
  25 C25           13.7329    -0.8998     0.9291 C.3     
  26 H26           -0.8147     1.9459     0.0167 H       
  27 H27            1.5428    -1.4690    -0.0200 H       
  28 H28            4.1504     0.0338    -0.0370 H       
  29 H29            3.6114     4.2836    -0.0086 H       
  30 H30            1.1912     4.0066     0.0138 H       
  31 H31            5.4100     4.5237    -0.0260 H       
  32 H32            7.8967     4.7458    -0.0476 H       
  33 H33           13.3054     0.3639    -1.3233 H       
  34 H34           12.1380     2.4604    -0.3712 H       
  35 H35           11.3978     1.8474    -1.8720 H       
  36 H36            9.6650     0.6865    -0.6003 H       
  37 H37           11.0227     1.7904     1.8998 H       
  38 H38            9.5752     0.7526     1.8392 H       
  39 H39           11.5193    -0.7090     2.3132 H       
  40 H40           11.0856    -2.2666     0.5519 H       
  41 H41            9.7451    -1.1244     0.2304 H       
  42 H42           10.7259    -0.5353    -1.7666 H       
  43 H43           12.0665    -1.6775    -1.4451 H       
  44 H44           14.6486    -0.6196     0.4083 H       
  45 H45           13.9414    -1.0188     1.9923 H       
  46 H46           13.3582    -1.8401     0.5248 H       
@<TRIPOS>BOND
   1    1    2 1
   2    1    9 1
   3    1   26 1
   4    2    3 2
   5    3    4 1
   6    3   27 1
   7    4    5 ar
   8    4    9 ar
   9    5    6 ar
  10    5   28 1
  11    6    7 ar
  12    6   10 1
  13    7    8 ar
  14    7   29 1
  15    8    9 ar
  16    8   30 1
  17   10   11 ar
  18   10   15 ar
  19   11   12 ar
  20   11   31 1
  21   12   13 ar
  22   12   32 1
  23   13   14 ar
  24   13   16 1
  25   14   15 ar
  26   16   19 1
  27   17   18 1
  28   17   23 1
  29   17   24 1
  30   17   33 1
  31   18   19 1
  32   18   34 1
  33   18   35 1
  34   19   20 1
  35   19   36 1
  36   20   21 1
  37   20   37 1
  38   20   38 1
  39   21   22 1
  40   21   24 1
  41   21   39 1
  42   22   23 1
  43   22   40 1
  44   22   41 1
  45   23   42 1
  46   23   43 1
  47   24   25 1
  48   25   44 1
  49   25   45 1
  50   25   46 1

#	End of record

