#	Name: ASD01120141
#	Creating user name:	WinNT
#	Creation time:	15. 06. 2019 18:59

#	Modifying user name:	WinNT
#	Modification time:	15. 06. 2019 18:59

#	Program:	/corina/corina34_cracker 3.40 0067  02.08.2006

@<TRIPOS>MOLECULE
ASD01120141
  45   47    0    0    0
SMALL
NO_CHARGES


@<TRIPOS>ATOM
   1 C1            -0.0585     1.4177     0.6826 C.ar    
   2 C2            -0.0452     0.0189     0.7722 C.ar    
   3 C3            -1.2119    -0.7044     0.6585 C.ar    
   4 C4            -2.4228    -0.0326     0.4517 C.ar    
   5 C5            -2.4284     1.3816     0.3627 C.ar    
   6 C6            -1.2293     2.0936     0.4863 C.ar    
   7 N7            -3.5867    -0.6907     0.3339 N.ar    
   8 C8            -4.7054    -0.0337     0.1401 C.ar    
   9 N9            -4.7590     1.2857     0.0501 N.ar    
  10 C10           -3.6674     2.0325     0.1530 C.ar    
  11 C11           -6.0862     3.4971     0.6120 C.ar    
  12 C12           -4.9820     4.0391    -0.0332 C.ar    
  13 C13           -5.1163     5.2100    -0.7684 C.ar    
  14 C14           -6.3475     5.8317    -0.8556 C.ar    
  15 C15           -7.4455     5.2883    -0.2111 C.ar    
  16 C16           -7.3140     4.1233     0.5215 C.ar    
  17 O17            1.1062     2.1100     0.7980 O.3     
  18 C18            1.0276     3.5333     0.6980 C.3     
  19 C19            2.4267     4.1334     0.8511 C.3     
  20 O20            1.1310    -0.6304     0.9729 O.3     
  21 C21            1.0792    -2.0561     1.0553 C.3     
  22 C22            2.4892    -2.6054     1.2815 C.3     
  23 N23           -3.7382     3.4079     0.0575 N.pl3   
  24 Cl24          -6.5171     7.2954    -1.7734 Cl      
  25 C25           -8.7869     5.9684    -0.3079 C.3     
  26 H26           -1.1928    -1.7820     0.7280 H       
  27 H27           -1.2290     3.1715     0.4195 H       
  28 H28           -5.6239    -0.5946     0.0497 H       
  29 H29           -5.9856     2.5844     1.1806 H       
  30 H30           -4.2596     5.6342    -1.2709 H       
  31 H31           -8.1726     3.7019     1.0231 H       
  32 H32            0.6193     3.8072    -0.2748 H       
  33 H33            0.3793     3.9176     1.4854 H       
  34 H34            2.8350     3.8595     1.8239 H       
  35 H35            3.0750     3.7490     0.0636 H       
  36 H36            2.3667     5.2190     0.7748 H       
  37 H37            0.4376    -2.3489     1.8863 H       
  38 H38            0.6769    -2.4594     0.1260 H       
  39 H39            3.1309    -2.3126     0.4504 H       
  40 H40            2.8915    -2.2022     2.2108 H       
  41 H41            2.4497    -3.6929     1.3443 H       
  42 H42           -2.9247     3.9363     0.0533 H       
  43 H43           -9.3295     5.5805    -1.1700 H       
  44 H44           -9.3591     5.7739     0.5992 H       
  45 H45           -8.6421     7.0426    -0.4228 H       
@<TRIPOS>BOND
   1    1    2 ar
   2    1   17 1
   3    1    6 ar
   4    2    3 ar
   5    2   20 1
   6    3    4 ar
   7    3   26 1
   8    4    5 ar
   9    4    7 ar
  10    5    6 ar
  11    5   10 ar
  12    6   27 1
  13    7    8 ar
  14    8    9 ar
  15    8   28 1
  16    9   10 ar
  17   10   23 1
  18   11   12 ar
  19   11   16 ar
  20   11   29 1
  21   12   13 ar
  22   12   23 1
  23   13   14 ar
  24   13   30 1
  25   14   15 ar
  26   14   24 1
  27   15   16 ar
  28   15   25 1
  29   16   31 1
  30   17   18 1
  31   18   19 1
  32   18   32 1
  33   18   33 1
  34   19   34 1
  35   19   35 1
  36   19   36 1
  37   20   21 1
  38   21   22 1
  39   21   37 1
  40   21   38 1
  41   22   39 1
  42   22   40 1
  43   22   41 1
  44   23   42 1
  45   25   43 1
  46   25   44 1
  47   25   45 1

#	End of record

