#	Name: ASD01920067
#	Creating user name:	WinNT
#	Creation time:	15. 06. 2019 20:11

#	Modifying user name:	WinNT
#	Modification time:	15. 06. 2019 20:11

#	Program:	/corina/corina34_cracker 3.40 0067  02.08.2006

@<TRIPOS>MOLECULE
ASD01920067
  35   37    0    0    0
SMALL
NO_CHARGES


@<TRIPOS>ATOM
   1 C1             0.0691     1.2092     0.5741 C.2     
   2 N2            -0.0013     0.0008     0.0096 N.2     
   3 C3             1.2934     2.0272     0.5748 C.2     
   4 O4             1.2935     3.1215     1.1062 O.2     
   5 N5             2.4140     1.5637    -0.0133 N.am    
   6 C6             3.5440     2.3848    -0.1121 C.ar    
   7 C7             4.8146     1.8328    -0.0132 C.ar    
   8 C8             3.3946     3.7502    -0.3146 C.ar    
   9 C9             4.5102     4.5598    -0.4125 C.ar    
  10 C10            5.7797     4.0076    -0.3082 C.ar    
  11 C11            5.9287     2.6426    -0.1106 C.ar    
  12 O12            6.8775     4.8043    -0.4045 O.3     
  13 Cl13           4.3243     6.2670    -0.6663 Cl      
  14 C14            7.2523     5.5078     0.6935 C.ar    
  15 C15            8.3034     6.4114     0.6053 C.ar    
  16 C16            8.6760     7.1233     1.7323 C.ar    
  17 C17            7.9799     6.9046     2.9140 C.ar    
  18 C18            6.9441     5.9896     2.9285 C.ar    
  19 N19            6.6095     5.3301     1.8360 N.ar    
  20 Cl20           8.4063     7.7703     4.3570 Cl      
  21 C21           -1.1416    -0.5893     0.0919 C.2     
  22 S22           -2.2635     0.3879     0.9301 S.3     
  23 C23           -1.0905     1.6136     1.1399 C.2     
  24 C24           -1.4451    -1.9530    -0.4732 C.3     
  25 H25            2.4378     0.6612    -0.3681 H       
  26 H26            4.9312     0.7702     0.1403 H       
  27 H27            2.4068     4.1794    -0.3960 H       
  28 H28            6.9165     2.2137    -0.0293 H       
  29 H29            8.8233     6.5564    -0.3301 H       
  30 H30            9.4897     7.8324     1.6937 H       
  31 H31            6.3994     5.8151     3.8446 H       
  32 H32           -1.2482     2.5543     1.6464 H       
  33 H33           -1.2308    -2.7134     0.2778 H       
  34 H34           -2.4974    -2.0045    -0.7525 H       
  35 H35           -0.8265    -2.1273    -1.3536 H       
@<TRIPOS>BOND
   1    1    2 1
   2    1    3 1
   3    1   23 2
   4    2   21 2
   5    3    4 2
   6    3    5 am
   7    5    6 1
   8    5   25 1
   9    6    7 ar
  10    6    8 ar
  11    7   11 ar
  12    7   26 1
  13    8    9 ar
  14    8   27 1
  15    9   10 ar
  16    9   13 1
  17   10   11 ar
  18   10   12 1
  19   11   28 1
  20   12   14 1
  21   14   15 ar
  22   14   19 ar
  23   15   16 ar
  24   15   29 1
  25   16   17 ar
  26   16   30 1
  27   17   18 ar
  28   17   20 1
  29   18   19 ar
  30   18   31 1
  31   21   22 1
  32   21   24 1
  33   22   23 1
  34   23   32 1
  35   24   33 1
  36   24   34 1
  37   24   35 1

#	End of record

