#	Name: ASD01816006
#	Creating user name:	WinNT
#	Creation time:	15. 06. 2019 19:34

#	Modifying user name:	WinNT
#	Modification time:	15. 06. 2019 19:34

#	Program:	/corina/corina34_cracker 3.40 0067  02.08.2006

@<TRIPOS>MOLECULE
ASD01816006
  51   56    0    0    0
SMALL
NO_CHARGES


@<TRIPOS>ATOM
   1 C1             0.3073     1.3824    -1.5313 C.ar    
   2 C2             0.3226    -0.0030    -1.5203 C.ar    
   3 C3             1.4120    -0.6901    -1.0261 C.ar    
   4 C4             2.5093     0.0063    -0.5328 C.ar    
   5 C5             2.4911     1.4109    -0.5457 C.ar    
   6 C6             1.3865     2.0923    -1.0463 C.ar    
   7 N7             3.6066    -0.6779    -0.0345 N.pl3   
   8 C8             4.6945    -0.0575     0.4553 C.2     
   9 C9             4.7888     1.3114     0.4928 C.2     
  10 C10            3.6659     2.1304    -0.0176 C.2     
  11 C11            5.7895     2.2750     0.9414 C.2     
  12 N12            5.2688     3.4977     0.7012 N.am    
  13 N13            3.9999     3.3806     0.1284 N.2     
  14 C14            5.9095     4.7103     0.9857 C.ar    
  15 O15            6.8775     2.0258     1.4347 O.2     
  16 C16            3.5811    -2.0768    -0.0408 C.ar    
  17 C17            6.8032     5.2559     0.0739 C.ar    
  18 C18            7.4332     6.4521     0.3570 C.ar    
  19 C19            7.1754     7.1074     1.5472 C.ar    
  20 C20            6.2867     6.5682     2.4589 C.ar    
  21 C21            5.6478     5.3736     2.1798 C.ar    
  22 F22            4.7793     4.8465     3.0703 F       
  23 C23            4.0661    -2.7747    -1.1372 C.ar    
  24 C24            3.0753    -2.7678     1.0536 C.ar    
  25 C25            3.0491    -4.1496     1.0510 C.ar    
  26 C26            3.5251    -4.8511    -0.0386 C.ar    
  27 C27            4.0391    -4.1664    -1.1387 C.ar    
  28 C28            4.5507    -4.9191    -2.3108 C.ar    
  29 C29            4.5188    -6.3121    -2.3154 C.ar    
  30 C30            4.9959    -7.0072    -3.4082 C.ar    
  31 C31            5.5051    -6.3234    -4.4974 C.ar    
  32 C32            5.5396    -4.9406    -4.4980 C.ar    
  33 C33            5.0594    -4.2354    -3.4131 C.ar    
  34 H34           -0.5501     1.9082    -1.9248 H       
  35 H35           -0.5267    -0.5503    -1.9020 H       
  36 H36            1.4121    -1.7701    -1.0220 H       
  37 H37            1.3740     3.1722    -1.0559 H       
  38 H38            5.5152    -0.6517     0.8291 H       
  39 H39            7.0058     4.7452    -0.8559 H       
  40 H40            8.1285     6.8762    -0.3522 H       
  41 H41            7.6698     8.0425     1.7653 H       
  42 H42            6.0881     7.0821     3.3878 H       
  43 H43            4.4631    -2.2398    -1.9873 H       
  44 H44            2.7021    -2.2236     1.9085 H       
  45 H45            2.6553    -4.6822     1.9040 H       
  46 H46            3.5032    -5.9309    -0.0368 H       
  47 H47            4.1217    -6.8469    -1.4653 H       
  48 H48            4.9720    -8.0869    -3.4126 H       
  49 H49            5.8774    -6.8713    -5.3505 H       
  50 H50            5.9385    -4.4118    -5.3510 H       
  51 H51            5.0865    -3.1557    -3.4147 H       
@<TRIPOS>BOND
   1    1    2 ar
   2    1    6 ar
   3    1   34 1
   4    2    3 ar
   5    2   35 1
   6    3    4 ar
   7    3   36 1
   8    4    5 ar
   9    4    7 1
  10    5    6 ar
  11    5   10 1
  12    6   37 1
  13    7    8 1
  14    7   16 1
  15    8    9 2
  16    8   38 1
  17    9   10 1
  18    9   11 1
  19   10   13 2
  20   11   12 am
  21   11   15 2
  22   12   13 1
  23   12   14 1
  24   14   17 ar
  25   14   21 ar
  26   16   23 ar
  27   16   24 ar
  28   17   18 ar
  29   17   39 1
  30   18   19 ar
  31   18   40 1
  32   19   20 ar
  33   19   41 1
  34   20   21 ar
  35   20   42 1
  36   21   22 1
  37   23   27 ar
  38   23   43 1
  39   24   25 ar
  40   24   44 1
  41   25   26 ar
  42   25   45 1
  43   26   27 ar
  44   26   46 1
  45   27   28 1
  46   28   29 ar
  47   28   33 ar
  48   29   30 ar
  49   29   47 1
  50   30   31 ar
  51   30   48 1
  52   31   32 ar
  53   31   49 1
  54   32   33 ar
  55   32   50 1
  56   33   51 1

#	End of record

