#	Name: ASD01881984
#	Creating user name:	WinNT
#	Creation time:	15. 06. 2019 19:43

#	Modifying user name:	WinNT
#	Modification time:	15. 06. 2019 19:43

#	Program:	/corina/corina34_cracker 3.40 0067  02.08.2006

@<TRIPOS>MOLECULE
ASD01881984
  49   53    0    0    0
SMALL
NO_CHARGES


@<TRIPOS>ATOM
   1 C1             1.5351     0.7527    -0.3908 C.3     
   2 N2             1.0809    -0.6349    -0.2295 N.3     
   3 C3            -0.3061    -0.6823     0.2522 C.3     
   4 C4            -0.7360    -2.1185     0.4052 C.2     
   5 C5            -1.2393    -2.8257    -0.7002 C.2     
   6 C6            -1.6258    -4.1121    -0.5687 C.2     
   7 N7            -1.5335    -4.7429     0.6369 N.pl3   
   8 C8            -1.0457    -4.0779     1.7351 C.2     
   9 C9            -0.6333    -2.7370     1.6123 C.2     
  10 C10           -0.0894    -1.9944     2.8055 C.3     
  11 C11           -1.8364    -5.9981     1.0660 C.2     
  12 N12           -1.5423    -6.0605     2.3391 N.2     
  13 N13           -1.0747    -4.9324     2.7448 N.2     
  14 F14           -1.0796    -1.1513     3.3210 F       
  15 F15            0.3000    -2.9114     3.7877 F       
  16 F16            1.0163    -1.2312     2.4155 F       
  17 C17           -2.4069    -7.1129     0.2277 C.3     
  18 C18           -1.2649    -7.9252    -0.3862 C.3     
  19 C19            3.0718     0.8434    -0.2792 C.3     
  20 C20            3.4771     1.9241    -1.2586 C.ar    
  21 C21            2.4457     2.1582    -2.1492 C.ar    
  22 C22            1.2773     1.2508    -1.8287 C.3     
  23 C23            4.6543     2.6453    -1.3626 C.ar    
  24 C24            4.8014     3.5970    -2.3531 C.ar    
  25 C25            3.7704     3.8310    -3.2433 C.ar    
  26 C26            2.5950     3.1124    -3.1411 C.ar    
  27 C27           -1.6371    -9.1784    -1.1811 C.3     
  28 C28           -1.1408    -7.9288    -1.9112 C.3     
  29 H29            1.0545     1.4034     0.3399 H       
  30 H30            1.1824    -1.1510    -1.0906 H       
  31 H31           -0.3732    -0.1782     1.2164 H       
  32 H32           -0.9571    -0.1825    -0.4651 H       
  33 H33           -1.3176    -2.3370    -1.6601 H       
  34 H34           -2.0114    -4.6459    -1.4246 H       
  35 H35           -3.0186    -7.7621     0.8542 H       
  36 H36           -3.0215    -6.6914    -0.5677 H       
  37 H37           -0.3427    -7.9528     0.1942 H       
  38 H38            3.3617     1.1230     0.7337 H       
  39 H39            3.5279    -0.1074    -0.5551 H       
  40 H40            1.2507     0.4095    -2.5213 H       
  41 H41            0.3418     1.8085    -1.8738 H       
  42 H42            5.4604     2.4630    -0.6674 H       
  43 H43            5.7210     4.1578    -2.4315 H       
  44 H44            3.8836     4.5749    -4.0181 H       
  45 H45            1.7898     3.2958    -3.8371 H       
  46 H46           -0.9596   -10.0303    -1.1239 H       
  47 H47           -2.6956    -9.4242    -1.2666 H       
  48 H48           -1.8728    -7.3525    -2.4770 H       
  49 H49           -0.1368    -7.9586    -2.3343 H       
@<TRIPOS>BOND
   1    1    2 1
   2    1   19 1
   3    1   22 1
   4    1   29 1
   5    2    3 1
   6    2   30 1
   7    3    4 1
   8    3   31 1
   9    3   32 1
  10    4    5 1
  11    4    9 2
  12    5    6 2
  13    5   33 1
  14    6    7 1
  15    6   34 1
  16    7   11 1
  17    7    8 1
  18    8    9 1
  19    8   13 2
  20    9   10 1
  21   10   14 1
  22   10   15 1
  23   10   16 1
  24   11   12 2
  25   11   17 1
  26   12   13 1
  27   17   18 1
  28   17   35 1
  29   17   36 1
  30   18   27 1
  31   18   28 1
  32   18   37 1
  33   19   20 1
  34   19   38 1
  35   19   39 1
  36   20   21 ar
  37   20   23 ar
  38   21   22 1
  39   21   26 ar
  40   22   40 1
  41   22   41 1
  42   23   24 ar
  43   23   42 1
  44   24   25 ar
  45   24   43 1
  46   25   26 ar
  47   25   44 1
  48   26   45 1
  49   27   28 1
  50   27   46 1
  51   27   47 1
  52   28   48 1
  53   28   49 1

#	End of record

