#	Name: ASD07110012
#	Creating user name:	WinNT
#	Creation time:	15. 06. 2019 21:09

#	Modifying user name:	WinNT
#	Modification time:	15. 06. 2019 21:09

#	Program:	/corina/corina34_cracker 3.40 0067  02.08.2006

@<TRIPOS>MOLECULE
ASD07110012
 432  441    0    0    0
SMALL
NO_CHARGES


@<TRIPOS>ATOM
   1 C1           -16.6898     2.1193   -22.0682 C.2     
   2 O2           -16.9875     0.9987   -21.7124 O.2     
   3 N3           -15.1248     2.0759   -20.2097 N.3     
   4 C4           -15.6348     2.8923   -21.3194 C.3     
   5 C5           -17.7976     0.7584   -24.5619 C.2     
   6 O6           -16.6575     0.4135   -24.3334 O.2     
   7 N7           -17.2985     2.6711   -23.1365 N.am    
   8 C8           -18.3357     2.0298   -23.9578 C.3     
   9 C9           -18.7138     3.0234   -25.0764 C.3     
  10 C10          -17.4670     3.9430   -25.1604 C.3     
  11 C11          -17.0393     4.0203   -23.6712 C.3     
  12 C12          -18.8238    -1.5518   -27.2026 C.2     
  13 O13          -19.7171    -0.8197   -27.5729 O.2     
  14 N14          -18.5833     0.0045   -25.3562 N.am    
  15 C15          -18.0602    -1.2315   -25.9435 C.3     
  16 C16          -18.2205    -2.3787   -24.9440 C.3     
  17 O17          -19.6102    -2.6251   -24.7205 O.3     
  18 C18          -19.2575    -4.5145   -29.2834 C.2     
  19 O19          -18.4163    -5.1682   -28.7037 O.2     
  20 N20          -18.5142    -2.6518   -27.9172 N.am    
  21 C21          -19.3257    -3.0230   -29.0790 C.3     
  22 C22          -18.7897    -2.3126   -30.3235 C.3     
  23 C23          -17.2689    -2.4686   -30.3845 C.3     
  24 C24          -16.9192    -3.8996   -30.7980 C.3     
  25 C25          -16.6963    -1.4873   -31.4093 C.3     
  26 C26          -18.8405    -6.9602   -31.0562 C.2     
  27 O27          -18.0948    -6.1138   -31.5017 O.2     
  28 N28          -20.1312    -5.1220   -30.1105 N.am    
  29 C29          -20.1513    -6.5565   -30.4319 C.3     
  30 C30          -21.3024    -6.7854   -31.4340 C.3     
  31 C31          -21.5068    -5.3787   -32.0558 C.3     
  32 C32          -21.2291    -4.4592   -30.8376 C.3     
  33 C33          -17.3330    -9.4325   -32.8985 C.2     
  34 O34          -18.4398    -9.6491   -33.3446 O.2     
  35 N35          -18.4968    -8.2619   -31.1195 N.am    
  36 C36          -17.1756    -8.6471   -31.6220 C.3     
  37 C37          -16.4642    -9.5092   -30.5772 C.3     
  38 C38          -16.2111    -8.6900   -29.3379 C.2     
  39 C39          -15.0896    -8.0139   -29.0429 C.2     
  40 N40          -15.2264    -7.3880   -27.8338 N.pl3   
  41 C41          -16.4711    -7.6529   -27.3079 C.ar    
  42 C42          -17.1145    -7.2758   -26.1339 C.ar    
  43 C43          -18.3968    -7.7145   -25.8851 C.ar    
  44 C44          -19.0549    -8.5303   -26.7949 C.ar    
  45 C45          -18.4412    -8.9132   -27.9544 C.ar    
  46 C46          -17.1447    -8.4753   -28.2296 C.ar    
  47 C47          -15.1981   -11.5505   -34.9767 C.2     
  48 O48          -14.1378   -11.2604   -34.4643 O.2     
  49 N49          -16.2439    -9.8941   -33.5443 N.am    
  50 C50          -16.3969   -10.6575   -34.7853 C.3     
  51 C51          -16.5080    -9.6925   -35.9673 C.3     
  52 C52          -17.8114    -8.9410   -35.8815 C.ar    
  53 C53          -17.8730    -7.7424   -35.1950 C.ar    
  54 C54          -19.0667    -7.0518   -35.1144 C.ar    
  55 C55          -20.2042    -7.5616   -35.7235 C.ar    
  56 O56          -21.3796    -6.8839   -35.6461 O.3     
  57 C57          -20.1396    -8.7642   -36.4121 C.ar    
  58 C58          -18.9423    -9.4484   -36.4942 C.ar    
  59 C59          -13.0299   -13.0543   -36.5050 C.2     
  60 O60          -13.0267   -11.8713   -36.7723 O.2     
  61 N61          -15.3043   -12.6715   -35.7174 N.am    
  62 C62          -14.2540   -13.6852   -35.8929 C.3     
  63 C63          -14.8154   -14.7676   -36.8388 C.3     
  64 C64          -15.9449   -14.0178   -37.5934 C.3     
  65 C65          -16.4950   -13.0875   -36.4806 C.3     
  66 C66           -9.6788   -14.2380   -37.5262 C.2     
  67 O67           -9.8895   -15.3834   -37.1876 O.2     
  68 N68          -11.9388   -13.8047   -36.7554 N.am    
  69 C69          -10.7488   -13.1914   -37.3505 C.3     
  70 C70           -6.0941   -14.2561   -38.2420 C.2     
  71 O71           -6.0069   -13.0526   -38.1198 O.2     
  72 N72           -8.4878   -13.9011   -38.0595 N.am    
  73 C73           -7.4476   -14.9185   -38.2303 C.3     
  74 C74           -7.6666   -15.6547   -39.5536 C.3     
  75 C75           -8.9846   -16.4294   -39.4941 C.3     
  76 C76           -9.2003   -17.1545   -40.7975 C.2     
  77 O77           -8.3837   -17.0612   -41.6831 O.2     
  78 O78          -10.2997   -17.9039   -40.9746 O.3     
  79 C79           -2.6887   -15.2217   -39.1554 C.2     
  80 O80           -3.0561   -16.2724   -39.6369 O.2     
  81 N81           -4.9805   -15.0010   -38.3884 N.am    
  82 C82           -3.6647   -14.3570   -38.3998 C.3     
  83 C83           -3.1750   -14.1718   -36.9621 C.3     
  84 C84           -4.0977   -13.1945   -36.2310 C.3     
  85 C85           -3.6154   -13.0121   -34.8149 C.2     
  86 O86           -2.6307   -13.6054   -34.4285 O.2     
  87 N87           -4.2783   -12.1897   -33.9779 N.am    
  88 C88            0.9415   -15.3781   -39.5552 C.2     
  89 O89            1.1865   -14.3323   -38.9920 O.2     
  90 N90           -1.4076   -14.8273   -39.2960 N.am    
  91 C91           -0.4589   -15.6679   -40.0305 C.3     
  92 C92           -0.5624   -15.3659   -41.5269 C.3     
  93 C93            3.8822   -14.9061   -40.2094 C.2     
  94 O94            3.1533   -14.2825   -40.9516 O.2     
  95 N95            1.9217   -16.2811   -39.7561 N.am    
  96 C96            3.3444   -16.0857   -39.4411 C.3     
  97 C97            4.0879   -17.3703   -39.8636 C.3     
  98 C98            3.1310   -17.9966   -40.9122 C.3     
  99 C99            1.7438   -17.6307   -40.3221 C.3     
 100 C100           7.1844   -13.5505   -40.9975 C.2     
 101 O101           7.7714   -14.4567   -40.4450 O.2     
 102 N102           5.1731   -14.5441   -40.0719 N.am    
 103 C103           5.6959   -13.3973   -40.8188 C.3     
 104 C104           5.4049   -12.1095   -40.0457 C.3     
 105 C105           3.8928   -11.8869   -39.9763 C.3     
 106 C106           5.9686   -12.2272   -38.6282 C.3     
 107 C107           9.8818   -11.4151   -42.2333 C.2     
 108 O108           9.1340   -10.4763   -42.4078 O.2     
 109 N109           7.8633   -12.6806   -41.7713 N.am    
 110 C110           9.3232   -12.7641   -41.8602 C.3     
 111 C111           9.7113   -13.7897   -42.9271 C.3     
 112 C112           9.2523   -15.1815   -42.4877 C.3     
 113 C113           9.6346   -16.1916   -43.5386 C.2     
 114 O114          10.2147   -15.8350   -44.5367 O.2     
 115 O115           9.3306   -17.4876   -43.3659 O.3     
 116 C116          13.0902   -10.1190   -43.4119 C.2     
 117 O117          13.5434   -11.2322   -43.5748 O.2     
 118 N118          11.2123   -11.2519   -42.3731 N.am    
 119 C119          11.7553    -9.9405   -42.7358 C.3     
 120 C120          11.9322    -9.0947   -41.4732 C.3     
 121 C121          10.5622    -8.8086   -40.8549 C.3     
 122 C122          10.7365    -7.9756   -39.6112 C.2     
 123 O123          11.8429    -7.6447   -39.2558 O.2     
 124 O124           9.6626    -7.6012   -38.8982 O.3     
 125 C125          15.9006    -7.9646   -44.3192 C.2     
 126 O126          15.4473    -7.0210   -43.7067 O.2     
 127 N127          13.7804    -9.0418   -43.8357 N.am    
 128 C128          15.0782    -9.2154   -44.4929 C.3     
 129 C129          14.8630    -9.4813   -45.9842 C.3     
 130 C130          14.1362   -10.8155   -46.1647 C.3     
 131 C131          13.9243   -11.0774   -47.6336 C.2     
 132 O132          14.3161   -10.2759   -48.4551 O.2     
 133 N133          13.2995   -12.2024   -48.0342 N.am    
 134 C134          18.9463    -6.5803   -45.7925 C.2     
 135 O135          18.9917    -7.4413   -46.6455 O.2     
 136 N136          17.1397    -7.8945   -44.8446 N.am    
 137 C137          17.9392    -6.6785   -44.6757 C.3     
 138 C138          18.6704    -6.7313   -43.3328 C.3     
 139 C139          17.6486    -6.7052   -42.1943 C.3     
 140 C140          18.3688    -6.7572   -40.8716 C.2     
 141 O141          19.5755    -6.8097   -40.8424 O.2     
 142 O142          17.6696    -6.7451   -39.7258 O.3     
 143 C143          21.9488    -4.6103   -46.4759 C.2     
 144 O144          21.9655    -4.1443   -45.3563 O.2     
 145 N145          19.7964    -5.5358   -45.8434 N.am    
 146 C146          20.7754    -5.4403   -46.9290 C.3     
 147 C147          20.1242    -4.7811   -48.1465 C.3     
 148 C148          19.0125    -5.6854   -48.6824 C.3     
 149 C149          18.3613    -5.0262   -49.8999 C.3     
 150 N150          17.2967    -5.8920   -50.4130 N.pl3   
 151 C151          16.5656    -5.5054   -51.5112 C.2     
 152 N152          16.8196    -4.3685   -52.0959 N.2     
 153 N153          15.5666    -6.3179   -51.9927 N.pl3   
 154 C154          24.7970    -2.9684   -48.0744 C.2     
 155 O155          24.3688    -3.1861   -49.1880 O.2     
 156 N156          22.9794    -4.3857   -47.3148 N.am    
 157 C157          24.1201    -3.5788   -46.8742 C.3     
 158 C158          25.1146    -4.4678   -46.1250 C.3     
 159 C159          24.4763    -4.9800   -44.8596 C.ar    
 160 C160          23.7754    -6.1714   -44.8723 C.ar    
 161 C161          23.1898    -6.6413   -43.7117 C.ar    
 162 C162          23.3054    -5.9199   -42.5381 C.ar    
 163 C163          24.0071    -4.7290   -42.5252 C.ar    
 164 C164          24.5964    -4.2613   -43.6849 C.ar    
 165 C165          27.5662    -2.7278   -49.5656 C.2     
 166 O166          27.6418    -3.7932   -48.9910 O.2     
 167 N167          25.8782    -2.1807   -47.9101 N.am    
 168 C168          26.6017    -1.6766   -49.0800 C.3     
 169 C169          27.3749    -0.4134   -48.6961 C.3     
 170 C170          26.4030     0.6791   -48.3314 C.2     
 171 O171          25.2136     0.4449   -48.2937 O.2     
 172 N172          26.8556     1.9164   -48.0473 N.am    
 173 C173          30.4878    -3.5959   -50.3932 C.2     
 174 O174          30.6703    -2.8252   -49.4747 O.2     
 175 N175          28.3447    -2.4840   -50.6383 N.am    
 176 C176          29.2019    -3.5428   -51.1772 C.3     
 177 C177          29.5121    -3.2496   -52.6465 C.3     
 178 C178          28.2384    -3.3067   -53.4499 C.2     
 179 O179          27.2044    -3.6591   -52.9231 O.2     
 180 N180          28.2484    -2.9661   -54.7539 N.am    
 181 C181          33.8191    -4.8542   -50.9948 C.2     
 182 O182          33.5401    -5.1433   -52.1391 O.2     
 183 N183          31.4350    -4.4999   -50.7127 N.am    
 184 C184          32.7282    -4.4801   -50.0246 C.3     
 185 C185          32.7068    -5.4833   -48.8696 C.3     
 186 C186          32.2834    -6.8566   -49.3947 C.3     
 187 C187          33.3740    -7.4094   -50.3144 C.3     
 188 C188          31.7119    -5.0151   -47.8058 C.3     
 189 C189          37.3313    -5.8258   -50.7059 C.2     
 190 O190          37.2960    -5.8023   -49.4938 O.2     
 191 N191          35.1048    -4.8674   -50.5907 N.am    
 192 C192          36.1549    -5.3253   -51.5038 C.3     
 193 C193          36.5997    -4.1628   -52.3936 C.3     
 194 C194          35.4558    -3.7426   -53.2802 C.2     
 195 C195          34.9458    -2.5001   -53.3785 C.2     
 196 N196          33.9276    -2.5610   -54.2913 N.pl3   
 197 C197          33.8507    -3.8395   -54.7192 C.2     
 198 N198          34.7709    -4.5394   -54.1139 N.2     
 199 C199          40.8192    -6.6770   -51.3937 C.2     
 200 O200          40.7625    -6.2363   -52.5222 O.2     
 201 N201          38.4226    -6.2995   -51.3392 N.am    
 202 C202          39.5662    -6.7861   -50.5635 C.3     
 203 C203          39.3357    -8.2486   -50.1778 C.3     
 204 C204          38.1359    -8.3438   -49.2331 C.3     
 205 C205          37.8281    -9.8148   -48.9463 C.3     
 206 C206          38.4610    -7.6257   -47.9218 C.3     
 207 C207          44.2340    -7.9677   -51.2037 C.2     
 208 O208          43.9651    -8.7000   -50.2751 O.2     
 209 N209          42.0028    -7.0693   -50.8821 N.am    
 210 C210          43.2208    -6.9633   -51.6891 C.3     
 211 C211          43.7982    -5.5524   -51.5582 C.3     
 212 C212          42.8214    -4.5433   -52.1652 C.3     
 213 C213          43.3901    -3.1537   -52.0363 C.2     
 214 O214          44.4703    -2.9869   -51.5107 O.2     
 215 N215          42.6983    -2.0963   -52.5051 N.am    
 216 C216          47.1981    -8.4441   -50.1765 C.2     
 217 O217          46.9523    -7.3265   -49.7885 O.2     
 218 N218          45.4390    -8.0522   -51.8016 N.am    
 219 C219          46.4239    -9.0287   -51.3297 C.3     
 220 C220          47.3866    -9.3728   -52.4680 C.3     
 221 C221          46.6319   -10.0691   -53.5710 C.2     
 222 C222          46.5938    -9.6929   -54.8635 C.2     
 223 N223          45.7992   -10.5967   -55.5158 N.pl3   
 224 C224          45.3790   -11.4943   -54.5984 C.2     
 225 N225          45.8850   -11.1753   -53.4386 N.2     
 226 O226          48.1607    -9.1650   -49.5802 O.3     
 227 H227         -14.7754     1.1901   -20.5433 H       
 228 H228         -14.4154     2.5725   -19.6918 H       
 229 H229         -14.8161     3.1383   -21.9957 H       
 230 H230         -16.0689     3.8110   -20.9250 H       
 231 H231         -19.2094     1.8080   -23.3449 H       
 232 H232         -18.8715     2.5004   -26.0197 H       
 233 H233         -19.5983     3.5972   -24.7998 H       
 234 H234         -16.6869     3.4888   -25.7714 H       
 235 H235         -17.7338     4.9293   -25.5401 H       
 236 H236         -17.6378     4.7604   -23.1401 H       
 237 H237         -15.9792     4.2619   -23.5935 H       
 238 H238         -19.4951     0.2803   -25.5390 H       
 239 H239         -17.0045    -1.1021   -26.1819 H       
 240 H240         -17.7520    -3.2777   -25.3446 H       
 241 H241         -17.7431    -2.1092   -24.0019 H       
 242 H242         -19.7871    -3.3416   -24.0957 H       
 243 H243         -17.7539    -3.1976   -27.6622 H       
 244 H244         -20.3607    -2.7266   -28.9088 H       
 245 H245         -19.2363    -2.7540   -31.2145 H       
 246 H246         -19.0447    -1.2539   -30.2757 H       
 247 H247         -16.8425    -2.2594   -29.4035 H       
 248 H248         -17.5375    -4.1942   -31.6459 H       
 249 H249         -15.8676    -3.9495   -31.0804 H       
 250 H250         -17.1034    -4.5746   -29.9621 H       
 251 H251         -16.9454    -0.4679   -31.1148 H       
 252 H252         -15.6128    -1.5985   -31.4528 H       
 253 H253         -17.1227    -1.6966   -32.3904 H       
 254 H254         -20.3246    -7.1371   -29.5258 H       
 255 H255         -21.0110    -7.5062   -32.1980 H       
 256 H256         -22.2043    -7.1133   -30.9170 H       
 257 H257         -20.7905    -5.1980   -32.8573 H       
 258 H258         -22.5292    -5.2539   -32.4123 H       
 259 H259         -22.1136    -4.3864   -30.2049 H       
 260 H260         -20.9189    -3.4695   -31.1728 H       
 261 H261         -19.1242    -8.9437   -30.8325 H       
 262 H262         -16.5857    -7.7515   -31.8168 H       
 263 H263         -17.0901   -10.3653   -30.3253 H       
 264 H264         -15.5144    -9.8598   -30.9812 H       
 265 H265         -14.2094    -7.9706   -29.6673 H       
 266 H266         -14.5477    -6.8395   -27.4103 H       
 267 H267         -16.6107    -6.6415   -25.4196 H       
 268 H268         -18.8947    -7.4209   -24.9728 H       
 269 H269         -20.0598    -8.8654   -26.5847 H       
 270 H270         -18.9593    -9.5485   -28.6575 H       
 271 H271         -15.3587    -9.7208   -33.1875 H       
 272 H272         -17.2986   -11.2672   -34.7279 H       
 273 H273         -15.6786    -8.9859   -35.9387 H       
 274 H274         -16.4738   -10.2553   -36.9002 H       
 275 H275         -16.9873    -7.3459   -34.7210 H       
 276 H276         -19.1146    -6.1159   -34.5775 H       
 277 H277         -21.5177    -6.2525   -36.3654 H       
 278 H278         -21.0238    -9.1634   -36.8868 H       
 279 H279         -18.8904   -10.3825   -37.0339 H       
 280 H280         -14.0005   -14.1271   -34.9292 H       
 281 H281         -14.0477   -15.1084   -37.5336 H       
 282 H282         -15.2211   -15.6042   -36.2700 H       
 283 H283         -15.5423   -13.4409   -38.4260 H       
 284 H284         -16.7131   -14.7111   -37.9358 H       
 285 H285         -17.1875   -13.6302   -35.8372 H       
 286 H286         -16.9858   -12.2194   -36.9207 H       
 287 H287         -11.9413   -14.7509   -36.5416 H       
 288 H288         -10.3808   -12.4019   -36.6953 H       
 289 H289         -11.0055   -12.7677   -38.3214 H       
 290 H290          -8.3193   -12.9851   -38.3303 H       
 291 H291          -7.4967   -15.6302   -37.4062 H       
 292 H292          -7.7061   -14.9324   -40.3689 H       
 293 H293          -6.8441   -16.3495   -39.7232 H       
 294 H294          -8.9451   -17.1517   -38.6788 H       
 295 H295          -9.8072   -15.7346   -39.3245 H       
 296 H296         -10.3943   -18.3500   -41.8274 H       
 297 H297          -5.0502   -15.9635   -38.4861 H       
 298 H298          -3.7404   -13.3844   -38.8859 H       
 299 H299          -3.1839   -15.1332   -36.4486 H       
 300 H300          -2.1600   -13.7747   -36.9723 H       
 301 H301          -4.0888   -12.2331   -36.7445 H       
 302 H302          -5.1127   -13.5916   -36.2208 H       
 303 H303          -5.0659   -11.7152   -34.2870 H       
 304 H304          -3.9679   -12.0723   -33.0665 H       
 305 H305          -1.1138   -13.9870   -38.9108 H       
 306 H306          -0.6922   -16.7180   -39.8548 H       
 307 H307          -0.4206   -14.2980   -41.6926 H       
 308 H308           0.2061   -15.9221   -42.0637 H       
 309 H309          -1.5463   -15.6625   -41.8902 H       
 310 H310           3.4676   -15.9183   -38.3711 H       
 311 H311           5.0499   -17.1283   -40.3153 H       
 312 H312           4.2176   -18.0385   -39.0123 H       
 313 H313           3.2745   -17.5423   -41.8926 H       
 314 H314           3.2596   -19.0779   -40.9619 H       
 315 H315           1.4637   -18.3362   -39.5398 H       
 316 H316           0.9894   -17.6158   -41.1086 H       
 317 H317           5.7561   -15.0428   -39.4783 H       
 318 H318           5.2155   -13.3508   -41.7961 H       
 319 H319           5.8732   -11.2668   -40.5541 H       
 320 H320           3.4390   -12.6636   -39.3607 H       
 321 H321           3.6890   -10.9102   -39.5374 H       
 322 H322           3.4729   -11.9283   -40.9813 H       
 323 H323           7.0459   -12.3858   -38.6776 H       
 324 H324           5.7613   -11.3098   -38.0774 H       
 325 H325           5.5003   -13.0700   -38.1197 H       
 326 H326           7.3853   -11.9992   -42.2694 H       
 327 H327           9.7289   -13.0714   -40.8963 H       
 328 H328           9.2325   -13.5305   -43.8714 H       
 329 H329          10.7937   -13.7880   -43.0561 H       
 330 H330           9.7311   -15.4406   -41.5434 H       
 331 H331           8.1699   -15.1832   -42.3588 H       
 332 H332           9.5962   -18.0981   -44.0672 H       
 333 H333          11.8103   -12.0027   -42.2335 H       
 334 H334          11.0677    -9.4381   -43.4163 H       
 335 H335          12.5484    -9.6370   -40.7560 H       
 336 H336          12.4180    -8.1537   -41.7313 H       
 337 H337           9.9460    -8.2663   -41.5720 H       
 338 H338          10.0764    -9.7496   -40.5968 H       
 339 H339           9.8244    -7.0676   -38.1082 H       
 340 H340          13.4180    -8.1515   -43.7055 H       
 341 H341          15.6021   -10.0598   -44.0452 H       
 342 H342          14.2623    -8.6794   -46.4133 H       
 343 H343          15.8283    -9.5222   -46.4889 H       
 344 H344          14.7369   -11.6175   -45.7356 H       
 345 H345          13.1710   -10.7746   -45.6600 H       
 346 H346          12.9862   -12.8434   -47.3771 H       
 347 H347          13.1631   -12.3710   -48.9796 H       
 348 H348          17.5023    -8.6491   -45.3344 H       
 349 H349          17.2847    -5.8072   -44.6990 H       
 350 H350          19.2565    -7.6484   -43.2740 H       
 351 H351          19.3332    -5.8703   -43.2459 H       
 352 H352          17.0625    -5.7881   -42.2531 H       
 353 H353          16.9858    -7.5661   -42.2812 H       
 354 H354          18.1755    -6.7800   -38.9024 H       
 355 H355          19.7601    -4.8472   -45.1612 H       
 356 H356          21.1191    -6.4394   -47.1972 H       
 357 H357          19.7019    -3.8191   -47.8563 H       
 358 H358          20.8747    -4.6293   -48.9223 H       
 359 H359          19.4348    -6.6474   -48.9726 H       
 360 H360          18.2620    -5.8372   -47.9066 H       
 361 H361          17.9389    -4.0641   -49.6097 H       
 362 H362          19.1117    -4.8743   -50.6757 H       
 363 H363          17.1077    -6.7381   -49.9779 H       
 364 H364          16.3037    -4.0957   -52.8707 H       
 365 H365          15.3775    -7.1640   -51.5576 H       
 366 H366          15.0507    -6.0451   -52.7676 H       
 367 H367          22.9660    -4.7584   -48.2102 H       
 368 H368          23.7705    -2.7865   -46.2122 H       
 369 H369          25.3964    -5.3102   -46.7566 H       
 370 H370          26.0032    -3.8881   -45.8747 H       
 371 H371          23.6850    -6.7350   -45.7892 H       
 372 H372          22.6416    -7.5718   -43.7218 H       
 373 H373          22.8473    -6.2867   -41.6315 H       
 374 H374          24.0972    -4.1652   -41.6084 H       
 375 H375          25.1477    -3.3327   -43.6740 H       
 376 H376          26.1773    -1.9476   -47.0173 H       
 377 H377          25.8916    -1.4411   -49.8727 H       
 378 H378          28.0187    -0.6267   -47.8428 H       
 379 H379          27.9849    -0.0903   -49.5397 H       
 380 H380          27.8068     2.1037   -48.0775 H       
 381 H381          26.2300     2.6196   -47.8126 H       
 382 H382          28.3376    -1.6074   -51.0536 H       
 383 H383          28.6885    -4.5011   -51.0985 H       
 384 H384          29.9524    -2.2563   -52.7336 H       
 385 H385          30.2140    -3.9927   -53.0249 H       
 386 H386          29.0754    -2.6842   -55.1752 H       
 387 H387          27.4285    -3.0028   -55.2710 H       
 388 H388          31.2604    -5.1637   -51.3981 H       
 389 H389          32.9166    -3.4802   -49.6339 H       
 390 H390          33.7021    -5.5532   -48.4306 H       
 391 H391          32.1364    -7.5368   -48.5558 H       
 392 H392          31.3518    -6.7610   -49.9525 H       
 393 H393          34.3500    -7.2557   -49.8540 H       
 394 H394          33.2105    -8.4755   -50.4720 H       
 395 H395          33.3386    -6.8909   -51.2725 H       
 396 H396          30.7017    -5.0471   -48.2140 H       
 397 H397          31.7737    -5.6705   -46.9370 H       
 398 H398          31.9515    -3.9942   -47.5085 H       
 399 H399          35.3348    -4.5737   -49.6953 H       
 400 H400          35.7685    -6.1322   -52.1265 H       
 401 H401          36.9029    -3.3226   -51.7690 H       
 402 H402          37.4407    -4.4788   -53.0108 H       
 403 H403          35.2765    -1.6241   -52.8404 H       
 404 H404          33.3661    -1.8236   -54.5773 H       
 405 H405          33.1469    -4.2191   -55.4451 H       
 406 H406          38.4508    -6.3183   -52.3086 H       
 407 H407          39.6750    -6.1850   -49.6608 H       
 408 H408          39.1386    -8.8344   -51.0756 H       
 409 H409          40.2232    -8.6368   -49.6781 H       
 410 H410          37.2688    -7.8753   -49.6987 H       
 411 H411          38.6952   -10.2834   -48.4808 H       
 412 H412          36.9734    -9.8827   -48.2733 H       
 413 H413          37.5965   -10.3264   -49.8805 H       
 414 H414          38.6803    -6.5777   -48.1261 H       
 415 H415          37.6062    -7.6936   -47.2488 H       
 416 H416          39.3281    -8.0943   -47.4563 H       
 417 H417          42.0481    -7.4217   -49.9796 H       
 418 H418          42.9830    -7.1630   -52.7340 H       
 419 H419          43.9532    -5.3196   -50.5047 H       
 420 H420          44.7504    -5.4991   -52.0860 H       
 421 H421          42.6664    -4.7761   -53.2187 H       
 422 H422          41.8692    -4.5966   -51.6374 H       
 423 H423          41.8344    -2.2297   -52.9255 H       
 424 H424          43.0643    -1.2018   -52.4221 H       
 425 H425          45.6540    -7.4666   -52.5443 H       
 426 H426          45.9109    -9.9328   -51.0018 H       
 427 H427          47.8335    -8.4572   -52.8553 H       
 428 H428          48.1715   -10.0301   -52.0938 H       
 429 H429          47.0938    -8.8416   -55.3013 H       
 430 H430          45.5790   -10.5931   -56.4604 H       
 431 H431          44.7344   -12.3386   -54.7932 H       
 432 H432          48.6299    -8.7477   -48.8448 H       
@<TRIPOS>BOND
   1    1    2 2
   2    1    4 1
   3    1    7 am
   4    3    4 1
   5    3  227 1
   6    3  228 1
   7    4  229 1
   8    4  230 1
   9    5    6 2
  10    5   14 am
  11    5    8 1
  12    7    8 1
  13    7   11 1
  14    8    9 1
  15    8  231 1
  16    9   10 1
  17    9  232 1
  18    9  233 1
  19   10   11 1
  20   10  234 1
  21   10  235 1
  22   11  236 1
  23   11  237 1
  24   12   13 2
  25   12   15 1
  26   12   20 am
  27   14   15 1
  28   14  238 1
  29   15   16 1
  30   15  239 1
  31   16   17 1
  32   16  240 1
  33   16  241 1
  34   17  242 1
  35   18   19 2
  36   18   21 1
  37   18   28 am
  38   20   21 1
  39   20  243 1
  40   21   22 1
  41   21  244 1
  42   22   23 1
  43   22  245 1
  44   22  246 1
  45   23   24 1
  46   23   25 1
  47   23  247 1
  48   24  248 1
  49   24  249 1
  50   24  250 1
  51   25  251 1
  52   25  252 1
  53   25  253 1
  54   26   27 2
  55   26   35 am
  56   26   29 1
  57   28   29 1
  58   28   32 1
  59   29   30 1
  60   29  254 1
  61   30   31 1
  62   30  255 1
  63   30  256 1
  64   31   32 1
  65   31  257 1
  66   31  258 1
  67   32  259 1
  68   32  260 1
  69   33   34 2
  70   33   36 1
  71   33   49 am
  72   35   36 1
  73   35  261 1
  74   36   37 1
  75   36  262 1
  76   37   38 1
  77   37  263 1
  78   37  264 1
  79   38   39 2
  80   38   46 1
  81   39   40 1
  82   39  265 1
  83   40   41 1
  84   40  266 1
  85   41   42 ar
  86   41   46 ar
  87   42   43 ar
  88   42  267 1
  89   43   44 ar
  90   43  268 1
  91   44   45 ar
  92   44  269 1
  93   45   46 ar
  94   45  270 1
  95   47   48 2
  96   47   50 1
  97   47   61 am
  98   49   50 1
  99   49  271 1
 100   50   51 1
 101   50  272 1
 102   51   52 1
 103   51  273 1
 104   51  274 1
 105   52   53 ar
 106   52   58 ar
 107   53   54 ar
 108   53  275 1
 109   54   55 ar
 110   54  276 1
 111   55   56 1
 112   55   57 ar
 113   56  277 1
 114   57   58 ar
 115   57  278 1
 116   58  279 1
 117   59   60 2
 118   59   68 am
 119   59   62 1
 120   61   62 1
 121   61   65 1
 122   62   63 1
 123   62  280 1
 124   63   64 1
 125   63  281 1
 126   63  282 1
 127   64   65 1
 128   64  283 1
 129   64  284 1
 130   65  285 1
 131   65  286 1
 132   66   67 2
 133   66   69 1
 134   66   72 am
 135   68   69 1
 136   68  287 1
 137   69  288 1
 138   69  289 1
 139   70   71 2
 140   70   73 1
 141   70   81 am
 142   72   73 1
 143   72  290 1
 144   73   74 1
 145   73  291 1
 146   74   75 1
 147   74  292 1
 148   74  293 1
 149   75   76 1
 150   75  294 1
 151   75  295 1
 152   76   77 2
 153   76   78 1
 154   78  296 1
 155   79   80 2
 156   79   82 1
 157   79   90 am
 158   81   82 1
 159   81  297 1
 160   82   83 1
 161   82  298 1
 162   83   84 1
 163   83  299 1
 164   83  300 1
 165   84   85 1
 166   84  301 1
 167   84  302 1
 168   85   86 2
 169   85   87 am
 170   87  303 1
 171   87  304 1
 172   88   89 2
 173   88   91 1
 174   88   95 am
 175   90   91 1
 176   90  305 1
 177   91   92 1
 178   91  306 1
 179   92  307 1
 180   92  308 1
 181   92  309 1
 182   93   94 2
 183   93  102 am
 184   93   96 1
 185   95   96 1
 186   95   99 1
 187   96   97 1
 188   96  310 1
 189   97   98 1
 190   97  311 1
 191   97  312 1
 192   98   99 1
 193   98  313 1
 194   98  314 1
 195   99  315 1
 196   99  316 1
 197  100  101 2
 198  100  103 1
 199  100  109 am
 200  102  103 1
 201  102  317 1
 202  103  104 1
 203  103  318 1
 204  104  105 1
 205  104  106 1
 206  104  319 1
 207  105  320 1
 208  105  321 1
 209  105  322 1
 210  106  323 1
 211  106  324 1
 212  106  325 1
 213  107  108 2
 214  107  110 1
 215  107  118 am
 216  109  110 1
 217  109  326 1
 218  110  111 1
 219  110  327 1
 220  111  112 1
 221  111  328 1
 222  111  329 1
 223  112  113 1
 224  112  330 1
 225  112  331 1
 226  113  114 2
 227  113  115 1
 228  115  332 1
 229  116  117 2
 230  116  119 1
 231  116  127 am
 232  118  119 1
 233  118  333 1
 234  119  120 1
 235  119  334 1
 236  120  121 1
 237  120  335 1
 238  120  336 1
 239  121  122 1
 240  121  337 1
 241  121  338 1
 242  122  123 2
 243  122  124 1
 244  124  339 1
 245  125  126 2
 246  125  128 1
 247  125  136 am
 248  127  128 1
 249  127  340 1
 250  128  129 1
 251  128  341 1
 252  129  130 1
 253  129  342 1
 254  129  343 1
 255  130  131 1
 256  130  344 1
 257  130  345 1
 258  131  132 2
 259  131  133 am
 260  133  346 1
 261  133  347 1
 262  134  135 2
 263  134  137 1
 264  134  145 am
 265  136  137 1
 266  136  348 1
 267  137  138 1
 268  137  349 1
 269  138  139 1
 270  138  350 1
 271  138  351 1
 272  139  140 1
 273  139  352 1
 274  139  353 1
 275  140  141 2
 276  140  142 1
 277  142  354 1
 278  143  144 2
 279  143  146 1
 280  143  156 am
 281  145  146 1
 282  145  355 1
 283  146  147 1
 284  146  356 1
 285  147  148 1
 286  147  357 1
 287  147  358 1
 288  148  149 1
 289  148  359 1
 290  148  360 1
 291  149  150 1
 292  149  361 1
 293  149  362 1
 294  150  151 1
 295  150  363 1
 296  151  152 2
 297  151  153 1
 298  152  364 1
 299  153  365 1
 300  153  366 1
 301  154  155 2
 302  154  157 1
 303  154  167 am
 304  156  157 1
 305  156  367 1
 306  157  158 1
 307  157  368 1
 308  158  159 1
 309  158  369 1
 310  158  370 1
 311  159  160 ar
 312  159  164 ar
 313  160  161 ar
 314  160  371 1
 315  161  162 ar
 316  161  372 1
 317  162  163 ar
 318  162  373 1
 319  163  164 ar
 320  163  374 1
 321  164  375 1
 322  165  166 2
 323  165  168 1
 324  165  175 am
 325  167  168 1
 326  167  376 1
 327  168  169 1
 328  168  377 1
 329  169  170 1
 330  169  378 1
 331  169  379 1
 332  170  171 2
 333  170  172 am
 334  172  380 1
 335  172  381 1
 336  173  174 2
 337  173  176 1
 338  173  183 am
 339  175  176 1
 340  175  382 1
 341  176  177 1
 342  176  383 1
 343  177  178 1
 344  177  384 1
 345  177  385 1
 346  178  179 2
 347  178  180 am
 348  180  386 1
 349  180  387 1
 350  181  182 2
 351  181  184 1
 352  181  191 am
 353  183  184 1
 354  183  388 1
 355  184  185 1
 356  184  389 1
 357  185  186 1
 358  185  188 1
 359  185  390 1
 360  186  187 1
 361  186  391 1
 362  186  392 1
 363  187  393 1
 364  187  394 1
 365  187  395 1
 366  188  396 1
 367  188  397 1
 368  188  398 1
 369  189  190 2
 370  189  192 1
 371  189  201 am
 372  191  192 1
 373  191  399 1
 374  192  193 1
 375  192  400 1
 376  193  194 1
 377  193  401 1
 378  193  402 1
 379  194  195 2
 380  194  198 1
 381  195  196 1
 382  195  403 1
 383  196  197 1
 384  196  404 1
 385  197  198 2
 386  197  405 1
 387  199  200 2
 388  199  202 1
 389  199  209 am
 390  201  202 1
 391  201  406 1
 392  202  203 1
 393  202  407 1
 394  203  204 1
 395  203  408 1
 396  203  409 1
 397  204  205 1
 398  204  206 1
 399  204  410 1
 400  205  411 1
 401  205  412 1
 402  205  413 1
 403  206  414 1
 404  206  415 1
 405  206  416 1
 406  207  208 2
 407  207  210 1
 408  207  218 am
 409  209  210 1
 410  209  417 1
 411  210  211 1
 412  210  418 1
 413  211  212 1
 414  211  419 1
 415  211  420 1
 416  212  213 1
 417  212  421 1
 418  212  422 1
 419  213  214 2
 420  213  215 am
 421  215  423 1
 422  215  424 1
 423  216  217 2
 424  216  219 1
 425  216  226 1
 426  218  219 1
 427  218  425 1
 428  219  220 1
 429  219  426 1
 430  220  221 1
 431  220  427 1
 432  220  428 1
 433  221  222 2
 434  221  225 1
 435  222  223 1
 436  222  429 1
 437  223  224 1
 438  223  430 1
 439  224  225 2
 440  224  431 1
 441  226  432 1

#	End of record

