#	Name: ASD01882944
#	Creating user name:	WinNT
#	Creation time:	15. 06. 2019 19:45

#	Modifying user name:	WinNT
#	Modification time:	15. 06. 2019 19:45

#	Program:	/corina/corina34_cracker 3.40 0067  02.08.2006

@<TRIPOS>MOLECULE
ASD01882944
  52   55    0    0    0
SMALL
NO_CHARGES


@<TRIPOS>ATOM
   1 C1            -0.0159     1.3220     0.0093 C.2     
   2 N2             0.0021    -0.0041     0.0020 N.2     
   3 C3             1.1523    -0.6857    -0.0126 C.2     
   4 C4             2.3835     0.0173    -0.0206 C.2     
   5 C5             2.3523     1.3664    -0.0131 C.2     
   6 N6             1.1484     2.0132     0.0019 N.pl3   
   7 O7            -1.0993     2.1290     0.0184 O.3     
   8 C8             0.8540     3.4562     0.0125 C.3     
   9 C9            -0.6831     3.5211     0.0242 C.3     
  10 O10            1.1423    -1.9071    -0.0187 O.2     
  11 C11           -1.1944     4.2379    -1.2270 C.3     
  12 O12           -2.6209     4.3119    -1.1842 O.3     
  13 C13           -4.4976     6.1697    -4.3581 C.ar    
  14 C14           -5.2523     5.6486    -3.3085 C.ar    
  15 C15           -4.6226     5.0290    -2.2495 C.ar    
  16 C16           -3.2385     4.9232    -2.2287 C.ar    
  17 C17           -2.4841     5.4413    -3.2727 C.ar    
  18 C18           -3.1082     6.0624    -4.3342 C.ar    
  19 C19           -5.1724     6.8314    -5.5017 C.ar    
  20 C20           -4.4190     7.3528    -6.5518 C.ar    
  21 C21           -5.0520     7.9674    -7.6131 C.ar    
  22 C22           -6.4315     8.0664    -7.6357 C.ar    
  23 C23           -7.1843     7.5506    -6.5962 C.ar    
  24 C24           -6.5622     6.9289    -5.5326 C.ar    
  25 C25           -7.1169     8.7391    -8.7971 C.3     
  26 C26           -6.7766     7.9956   -10.0903 C.3     
  27 C27           -8.6310     8.7158    -8.5788 C.3     
  28 C28           -6.6388    10.1887    -8.9014 C.3     
  29 H29            3.3237    -0.5140    -0.0321 H       
  30 H30            3.2727     1.9314    -0.0185 H       
  31 H31            1.2651     3.9237     0.9072 H       
  32 H32            1.2480     3.9334    -0.8848 H       
  33 H33           -1.0396     4.0220     0.9243 H       
  34 H34           -0.7793     5.2451    -1.2639 H       
  35 H35           -0.8857     3.6850    -2.1142 H       
  36 H36           -6.3290     5.7306    -3.3242 H       
  37 H37           -5.2068     4.6251    -1.4360 H       
  38 H38           -1.4075     5.3582    -3.2534 H       
  39 H39           -2.5209     6.4649    -5.1462 H       
  40 H40           -3.3419     7.2764    -6.5349 H       
  41 H41           -4.4691     8.3722    -8.4272 H       
  42 H42           -8.2610     7.6306    -6.6190 H       
  43 H43           -7.1511     6.5222    -4.7238 H       
  44 H44           -7.1171     6.9628   -10.0161 H       
  45 H45           -7.2723     8.4822   -10.9304 H       
  46 H46           -5.6979     8.0122   -10.2459 H       
  47 H47           -8.8735     9.2455    -7.6575 H       
  48 H48           -9.1267     9.2024    -9.4188 H       
  49 H49           -8.9716     7.6831    -8.5046 H       
  50 H50           -5.5601    10.2053    -9.0569 H       
  51 H51           -7.1345    10.6753    -9.7414 H       
  52 H52           -6.8812    10.7184    -7.9801 H       
@<TRIPOS>BOND
   1    1    2 2
   2    1    6 1
   3    1    7 1
   4    2    3 1
   5    3    4 1
   6    3   10 2
   7    4    5 2
   8    4   29 1
   9    5    6 1
  10    5   30 1
  11    6    8 1
  12    7    9 1
  13    8    9 1
  14    8   31 1
  15    8   32 1
  16    9   11 1
  17    9   33 1
  18   11   12 1
  19   11   34 1
  20   11   35 1
  21   12   16 1
  22   13   14 ar
  23   13   18 ar
  24   13   19 1
  25   14   15 ar
  26   14   36 1
  27   15   16 ar
  28   15   37 1
  29   16   17 ar
  30   17   18 ar
  31   17   38 1
  32   18   39 1
  33   19   20 ar
  34   19   24 ar
  35   20   21 ar
  36   20   40 1
  37   21   22 ar
  38   21   41 1
  39   22   23 ar
  40   22   25 1
  41   23   24 ar
  42   23   42 1
  43   24   43 1
  44   25   26 1
  45   25   28 1
  46   25   27 1
  47   26   44 1
  48   26   45 1
  49   26   46 1
  50   27   47 1
  51   27   48 1
  52   27   49 1
  53   28   50 1
  54   28   51 1
  55   28   52 1

#	End of record

