#	Name: ASD00731010
#	Creating user name:	WinNT
#	Creation time:	15. 06. 2019 18:37

#	Modifying user name:	WinNT
#	Modification time:	15. 06. 2019 18:37

#	Program:	/corina/corina34_cracker 3.40 0067  02.08.2006

@<TRIPOS>MOLECULE
ASD00731010
 353  355    0    0    0
SMALL
NO_CHARGES


@<TRIPOS>ATOM
   1 C1           -12.6619    12.2100    12.6906 C.2     
   2 O2           -12.9987    11.2913    13.4071 O.2     
   3 N3           -10.6821    12.3135    14.0902 N.am    
   4 C4           -11.3545    12.9178    12.9374 C.3     
   5 C5           -15.1066    12.0536     9.9774 C.2     
   6 O6           -14.3918    12.6780     9.2223 O.2     
   7 N7           -13.4541    12.5943    11.6702 N.am    
   8 C8           -14.7222    11.9023    11.4266 C.3     
   9 C9           -15.8132    12.5109    12.3099 C.3     
  10 O10          -16.0412    13.8665    11.9194 O.3     
  11 C11          -17.9231    10.9303     7.8609 C.2     
  12 O12          -18.4852    10.3566     8.7696 O.2     
  13 N13          -16.2449    11.4950     9.5203 N.am    
  14 C14          -16.6186    11.6421     8.1114 C.3     
  15 C15          -19.8224     9.8509     4.9298 C.2     
  16 O16          -18.9160    10.1253     4.1721 O.2     
  17 N17          -18.4650    10.9312     6.6269 N.am    
  18 C18          -19.7331    10.2392     6.3832 C.3     
  19 C19          -20.8968    11.1680     6.7354 C.3     
  20 C20          -20.8782    11.4622     8.2367 C.3     
  21 C21          -22.0419    12.3910     8.5889 C.3     
  22 N22          -22.0240    12.6727    10.0265 N.pl3   
  23 C23          -22.9813    13.4905    10.5786 C.2     
  24 N24          -22.9654    13.7412    11.8576 N.2     
  25 N25          -23.9553    14.0440     9.7817 N.pl3   
  26 C26          -22.4440     8.6896     2.6625 C.2     
  27 O27          -23.3174     8.8910     3.4795 O.2     
  28 N28          -20.9094     9.1989     4.4721 N.am    
  29 C29          -20.9962     8.8214     3.0592 C.3     
  30 C30          -20.2846     7.4842     2.8439 C.3     
  31 C31          -18.7903     7.6503     3.1274 C.3     
  32 C32          -18.0990     6.2886     3.0338 C.3     
  33 C33          -18.1790     8.6043     2.0993 C.3     
  34 C34          -24.2914     7.2834    -0.1612 C.2     
  35 O35          -23.2961     6.7735    -0.6305 O.2     
  36 N36          -22.7683     8.3478     1.3997 N.am    
  37 C37          -24.1758     8.2196     1.0141 C.3     
  38 C38          -24.7259     9.5939     0.6274 C.3     
  39 C39          -24.7241    10.5077     1.8545 C.3     
  40 C40          -25.2741    11.8820     1.4678 C.3     
  41 N41          -25.2724    12.7570     2.6428 N.pl3   
  42 C42          -25.7261    14.0505     2.5374 C.2     
  43 N43          -26.1578    14.4984     1.3919 N.2     
  44 N44          -25.7245    14.8716     3.6400 N.pl3   
  45 C45          -26.8683     6.4183    -2.6054 C.2     
  46 O46          -27.5972     7.3151    -2.2376 O.2     
  47 N47          -25.5008     7.0128    -0.6908 N.am    
  48 C48          -25.6132     6.1027    -1.8333 C.3     
  49 C49          -25.6728     4.6587    -1.3312 C.3     
  50 O50          -26.8702     4.4662    -0.5754 O.3     
  51 C51          -28.9630     4.6371    -4.9596 C.2     
  52 O52          -28.3110     3.6225    -4.8318 O.2     
  53 N53          -27.1808     5.7039    -3.7047 N.am    
  54 C54          -28.4531     5.9369    -4.3926 C.3     
  55 C55          -28.2428     6.9409    -5.5277 C.3     
  56 C56          -27.1382     6.4352    -6.4578 C.3     
  57 C57          -27.6476     5.2255    -7.2439 C.3     
  58 C58          -27.8364     8.2949    -4.9423 C.3     
  59 C59          -31.5463     3.6892    -7.3660 C.2     
  60 O60          -31.8235     4.8448    -7.6082 O.2     
  61 N61          -30.1436     4.6022    -5.6088 N.am    
  62 C62          -30.5928     3.3618    -6.2460 C.3     
  63 C63          -31.3022     2.4852    -5.2120 C.3     
  64 C64          -30.3014     2.0500    -4.1396 C.3     
  65 C65          -31.0109     1.1734    -3.1057 C.3     
  66 N66          -30.0526     0.7567    -2.0789 N.pl3   
  67 C67          -30.4639    -0.0427    -1.0387 C.2     
  68 N68          -29.6114    -0.4134    -0.1251 N.2     
  69 N69          -31.7745    -0.4510    -0.9621 N.pl3   
  70 C70          -33.9277     1.8397    -9.4329 C.2     
  71 O71          -33.8128     0.8345    -8.7641 O.2     
  72 N72          -32.0912     2.6978    -8.0986 N.am    
  73 C73          -33.0182     3.0160    -9.1875 C.3     
  74 C74          -32.2250     3.3215   -10.4597 C.3     
  75 O75          -31.5333     2.1452   -10.8837 O.3     
  76 C76          -36.2358     0.8539   -12.1031 C.2     
  77 O77          -36.3676     1.9502   -12.6046 O.2     
  78 N78          -34.8687     1.9047   -10.3955 N.am    
  79 C79          -35.6790     0.7251   -10.7086 C.3     
  80 C80          -36.8310     0.6174    -9.7074 C.3     
  81 C81          -37.6573    -0.6334   -10.0134 C.3     
  82 C82          -36.7892    -1.8783    -9.8192 C.3     
  83 C83          -38.8575    -0.6960    -9.0666 C.3     
  84 C84          -38.0399    -1.3478   -14.3968 C.2     
  85 O85          -38.1004    -2.2419   -13.5796 O.2     
  86 N86          -36.5874    -0.2494   -12.7928 N.am    
  87 C87          -37.2132    -0.1206   -14.1111 C.3     
  88 C88          -36.1273     0.0228   -15.1794 C.3     
  89 C89          -35.3680     1.3332   -14.9621 C.3     
  90 C90          -34.2821     1.4766   -16.0303 C.3     
  91 N91          -33.5551     2.7314   -15.8222 N.pl3   
  92 C92          -32.5266     3.0779   -16.6661 C.2     
  93 N93          -31.8797     4.1943   -16.4810 N.2     
  94 N94          -32.1803     2.2471   -17.7053 N.pl3   
  95 C95          -38.8164    -3.7274   -16.3966 C.2     
  96 O96          -37.6299    -3.5970   -16.6114 O.2     
  97 N97          -38.7121    -1.4517   -15.5603 N.am    
  98 C98          -39.6021    -2.5919   -15.7929 C.3     
  99 C99          -40.7203    -2.1788   -16.7520 C.3     
 100 C100         -41.5826    -1.1309   -16.0966 C.2     
 101 O101         -41.3918    -0.8263   -14.9383 O.2     
 102 N102         -42.5657    -0.5323   -16.7978 N.am    
 103 C103         -39.6202    -6.6274   -18.3792 C.2     
 104 O104         -40.8048    -6.3672   -18.3811 O.2     
 105 N105         -39.4323    -4.8878   -16.6977 N.am    
 106 C106         -38.7003    -5.9448   -17.4000 C.3     
 107 C107         -38.1846    -6.9680   -16.3862 C.3     
 108 C108         -39.3586    -7.5166   -15.5729 C.3     
 109 C109         -40.1761    -8.4757   -16.4404 C.3     
 110 C110         -37.1833    -6.2942   -15.4458 C.3     
 111 C111         -39.3966    -9.3972   -20.7758 C.2     
 112 O112         -38.1999    -9.5779   -20.6974 O.2     
 113 N113         -39.1266    -7.5272   -19.2528 N.am    
 114 C114         -39.9984    -8.1090   -20.2763 C.3     
 115 C115         -40.1422    -7.1278   -21.4415 C.3     
 116 C116         -41.1005    -7.7095   -22.4828 C.3     
 117 C117         -42.4932    -7.8588   -21.8671 C.3     
 118 C118         -38.7731    -6.8936   -22.0829 C.3     
 119 C119         -40.3435   -12.1825   -22.8910 C.2     
 120 O120         -41.1968   -11.5127   -23.4335 O.2     
 121 N121         -40.1883   -10.3484   -21.3095 N.am    
 122 C122         -39.6236   -11.6486   -21.6795 C.3     
 123 C123         -39.7901   -12.6269   -20.5150 C.3     
 124 C124         -38.9702   -12.1556   -19.3417 C.2     
 125 C125         -39.4288   -11.9288   -18.0960 C.2     
 126 N126         -38.3585   -11.5166   -17.3489 N.pl3   
 127 C127         -37.2823   -11.5058   -18.1647 C.2     
 128 N128         -37.6548   -11.8939   -19.3537 N.2     
 129 C129         -41.0589   -15.4358   -24.2215 C.2     
 130 O130         -40.6263   -15.9555   -23.2147 O.2     
 131 N131         -40.0391   -13.4042   -23.3717 N.am    
 132 C132         -40.8155   -13.9707   -24.4774 C.3     
 133 C133         -40.0383   -13.8035   -25.7846 C.3     
 134 C134         -39.8619   -12.3363   -26.0801 C.2     
 135 C135         -40.6711   -11.5696   -26.8279 C.2     
 136 N136         -40.1916   -10.2887   -26.8709 N.pl3   
 137 C137         -39.0327   -10.1977   -26.1330 C.ar    
 138 C138         -38.1582    -9.1543   -25.8484 C.ar    
 139 C139         -37.0544    -9.3834   -25.0561 C.ar    
 140 C140         -36.8049   -10.6465   -24.5378 C.ar    
 141 C141         -37.6508   -11.6860   -24.8052 C.ar    
 142 C142         -38.7785   -11.4749   -25.6004 C.ar    
 143 C143         -40.8123   -18.3908   -25.3506 C.2     
 144 O144         -39.8694   -17.8278   -25.8545 O.2     
 145 N145         -41.7572   -16.1684   -25.1115 N.am    
 146 C146         -41.9937   -17.5926   -24.8627 C.3     
 147 C147         -43.2532   -18.0382   -25.6084 C.3     
 148 C148         -44.4533   -17.3288   -25.0360 C.2     
 149 O149         -44.3148   -16.5441   -24.1217 O.2     
 150 N150         -45.6805   -17.5665   -25.5401 N.am    
 151 O151         -40.8074   -19.7272   -25.2255 O.3     
 152 C152          -9.4882    12.7873    14.4985 C.2     
 153 O153          -8.9705    13.7138    13.9116 O.2     
 154 C154           5.4104    12.7785    25.8660 C.3     
 155 C155           4.7082    13.4096    24.6620 C.3     
 156 C156           3.3809    12.6910    24.4115 C.3     
 157 C157           2.6786    13.3220    23.2075 C.3     
 158 C158           1.3513    12.6034    22.9569 C.3     
 159 C159           0.6490    13.2345    21.7530 C.3     
 160 C160          -0.6783    12.5159    21.5024 C.3     
 161 C161          -1.3805    13.1469    20.2985 C.3     
 162 C162          -2.7078    12.4283    20.0479 C.3     
 163 C163          -3.4101    13.0594    18.8440 C.3     
 164 C164          -4.7374    12.3408    18.5934 C.3     
 165 C165          -5.4396    12.9718    17.3894 C.3     
 166 C166          -6.7669    12.2532    17.1389 C.3     
 167 C167          -7.4692    12.8843    15.9349 C.3     
 168 C168          -8.7965    12.1657    15.6844 C.3     
 169 H169         -11.0961    11.5725    14.5596 H       
 170 H170         -10.7192    12.8251    12.0565 H       
 171 H171         -11.5445    13.9720    13.1391 H       
 172 H172         -13.1847    13.3291    11.0972 H       
 173 H173         -14.6103    10.8444    11.6643 H       
 174 H174         -16.7344    11.9398    12.1949 H       
 175 H175         -15.4953    12.4816    13.3521 H       
 176 H176         -16.7222    14.3160    12.4382 H       
 177 H177         -16.8166    10.9957    10.1242 H       
 178 H178         -15.8414    11.2085     7.4822 H       
 179 H179         -16.7305    12.7000     7.8738 H       
 180 H180         -18.0155    11.3900     5.9000 H       
 181 H181         -19.7830     9.3434     7.0023 H       
 182 H182         -20.7975    12.1012     6.1810 H       
 183 H183         -21.8385    10.6868     6.4711 H       
 184 H184         -20.9775    10.5290     8.7911 H       
 185 H185         -19.9365    11.9433     8.5010 H       
 186 H186         -21.9425    13.3242     8.0345 H       
 187 H187         -22.9836    11.9098     8.3246 H       
 188 H188         -21.3368    12.2822    10.5887 H       
 189 H189         -23.6408    14.3182    12.2472 H       
 190 H190         -23.9672    13.8575     8.8299 H       
 191 H191         -24.6307    14.6211    10.1713 H       
 192 H192         -21.6343     8.9795     5.0781 H       
 193 H193         -20.5205     9.5887     2.4483 H       
 194 H194         -20.7018     6.7377     3.5196 H       
 195 H195         -20.4249     7.1599     1.8127 H       
 196 H196         -18.6537     8.0591     4.1286 H       
 197 H197         -18.2356     5.8798     2.0327 H       
 198 H198         -17.0344     6.4068     3.2359 H       
 199 H199         -18.5345     5.6089     3.7663 H       
 200 H200         -18.6714     9.5744     2.1659 H       
 201 H201         -17.1144     8.7226     2.3013 H       
 202 H202         -18.3156     8.1955     1.0981 H       
 203 H203         -22.0698     8.1867     0.7463 H       
 204 H204         -24.7476     7.8222     1.8527 H       
 205 H205         -24.0999    10.0299    -0.1512 H       
 206 H206         -25.7451     9.4860     0.2562 H       
 207 H207         -25.3501    10.0717     2.6331 H       
 208 H208         -23.7049    10.6155     2.2257 H       
 209 H209         -24.6481    12.3180     0.6892 H       
 210 H210         -26.2933    11.7742     1.0966 H       
 211 H211         -24.9511    12.4237     3.4952 H       
 212 H212         -26.4779    15.4110     1.3175 H       
 213 H213         -25.4032    14.5383     4.4924 H       
 214 H214         -26.0446    15.7842     3.5656 H       
 215 H215         -26.2969     7.4206    -0.3155 H       
 216 H216         -24.7464     6.2260    -2.4827 H       
 217 H217         -25.6668     3.9775    -2.1821 H       
 218 H218         -24.8079     4.4578    -0.6989 H       
 219 H219         -26.9746     3.5710    -0.2251 H       
 220 H220         -26.5632     5.0355    -4.0405 H       
 221 H221         -29.1808     6.3352    -3.6854 H       
 222 H222         -29.1694     7.0520    -6.0909 H       
 223 H223         -26.8566     7.2272    -7.1517 H       
 224 H224         -26.2699     6.1447    -5.8663 H       
 225 H225         -28.6234     5.4551    -7.6721 H       
 226 H226         -26.9459     4.9906    -8.0442 H       
 227 H227         -27.7365     4.3691    -6.5756 H       
 228 H228         -26.8601     8.2063    -4.4657 H       
 229 H229         -27.7852     9.0352    -5.7406 H       
 230 H230         -28.5744     8.6075    -4.2036 H       
 231 H231         -30.6959     5.3983    -5.6542 H       
 232 H232         -29.7318     2.8267    -6.6466 H       
 233 H233         -32.1090     3.0520    -4.7474 H       
 234 H234         -31.7138     1.6039    -5.7040 H       
 235 H235         -29.4946     1.4832    -4.6042 H       
 236 H236         -29.8899     2.9313    -3.6477 H       
 237 H237         -31.8177     1.7402    -2.6411 H       
 238 H238         -31.4225     0.2921    -3.5976 H       
 239 H239         -29.1280     1.0448    -2.1329 H       
 240 H240         -29.9015    -0.9774     0.6088 H       
 241 H241         -32.4090    -0.1751    -1.6419 H       
 242 H242         -32.0647    -1.0149    -0.2282 H       
 243 H243         -31.8695     1.7735    -7.9050 H       
 244 H244         -33.6152     3.8860    -8.9138 H       
 245 H245         -32.9083     3.6443   -11.2452 H       
 246 H246         -31.5043     4.1137   -10.2570 H       
 247 H247         -31.0083     2.2657   -11.6869 H       
 248 H248         -35.0094     2.7326   -10.8811 H       
 249 H249         -35.0586    -0.1689   -10.6462 H       
 250 H250         -36.4287     0.5488    -8.6967 H       
 251 H251         -37.4652     1.5003    -9.7869 H       
 252 H252         -38.0093    -0.5932   -11.0442 H       
 253 H253         -36.4950    -1.9564    -8.7726 H       
 254 H254         -37.3559    -2.7646   -10.1046 H       
 255 H255         -35.8981    -1.8006   -10.4422 H       
 256 H256         -39.4760     0.1909    -9.2049 H       
 257 H257         -39.4462    -1.5871    -9.2846 H       
 258 H258         -38.5055    -0.7362    -8.0358 H       
 259 H259         -36.4259    -1.1287   -12.4164 H       
 260 H260         -37.8545     0.7607   -14.1243 H       
 261 H261         -35.4340    -0.8151   -15.1075 H       
 262 H262         -36.5881     0.0294   -16.1672 H       
 263 H263         -36.0614     2.1712   -15.0340 H       
 264 H264         -34.9073     1.3266   -13.9742 H       
 265 H265         -33.5888     0.6387   -15.9584 H       
 266 H266         -34.7429     1.4832   -17.0181 H       
 267 H267         -33.7993     3.3176   -15.0890 H       
 268 H268         -31.1540     4.4388   -17.0764 H       
 269 H269         -32.6617     1.4163   -17.8431 H       
 270 H270         -31.4547     2.4916   -18.3007 H       
 271 H271         -38.6067    -0.7714   -16.2438 H       
 272 H272         -40.0358    -2.9133   -14.8459 H       
 273 H273         -40.2844    -1.7720   -17.6645 H       
 274 H274         -41.3290    -3.0492   -16.9967 H       
 275 H275         -42.7182    -0.7760   -17.7242 H       
 276 H276         -43.1207     0.1422   -16.3760 H       
 277 H277         -40.3602    -5.0230   -16.4495 H       
 278 H278         -37.8578    -5.5084   -17.9366 H       
 279 H279         -37.6940    -7.7863   -16.9134 H       
 280 H280         -38.9792    -8.0491   -14.7008 H       
 281 H281         -39.9922    -6.6914   -15.2474 H       
 282 H282         -40.9581    -8.9354   -15.8361 H       
 283 H283         -40.6301    -7.9239   -17.2635 H       
 284 H284         -39.5224    -9.2512   -16.8397 H       
 285 H285         -37.6719    -5.4714   -14.9240 H       
 286 H286         -36.8213    -7.0214   -14.7191 H       
 287 H287         -36.3434    -5.9098   -16.0244 H       
 288 H288         -38.1940    -7.7896   -19.2038 H       
 289 H289         -40.9800    -8.3090   -19.8466 H       
 290 H290         -40.5374    -6.1812   -21.0727 H       
 291 H291         -41.1528    -7.0408   -23.3420 H       
 292 H292         -40.7386    -8.6862   -22.8040 H       
 293 H293         -42.4274    -8.4621   -20.9617 H       
 294 H294         -42.8884    -6.8736   -21.6193 H       
 295 H295         -43.1559    -8.3469   -22.5817 H       
 296 H296         -38.3362    -7.8511   -22.3666 H       
 297 H297         -38.8891    -6.2702   -22.9695 H       
 298 H298         -38.1186    -6.3926   -21.3696 H       
 299 H299         -41.1320   -10.1722   -21.4486 H       
 300 H300         -38.5642   -11.5328   -21.9081 H       
 301 H301         -40.8406   -12.6751   -20.2283 H       
 302 H302         -39.4512   -13.6168   -20.8208 H       
 303 H303         -40.4457   -12.0488   -17.7525 H       
 304 H304         -38.3706   -11.2770   -16.4090 H       
 305 H305         -36.2789   -11.2263   -17.8794 H       
 306 H306         -39.3059   -13.9085   -22.9856 H       
 307 H307         -41.7709   -13.4516   -24.5538 H       
 308 H308         -39.0602   -14.2749   -25.6886 H       
 309 H309         -40.5902   -14.2742   -26.5982 H       
 310 H310         -41.5675   -11.9129   -27.3227 H       
 311 H311         -40.6064    -9.5542   -27.3499 H       
 312 H312         -38.3435    -8.1679   -26.2473 H       
 313 H313         -36.3763    -8.5720   -24.8365 H       
 314 H314         -35.9352   -10.8092   -23.9186 H       
 315 H315         -37.4500   -12.6663   -24.3988 H       
 316 H316         -42.1031   -15.7527   -25.9167 H       
 317 H317         -42.1270   -17.7575   -23.7935 H       
 318 H318         -43.1558   -17.7920   -26.6657 H       
 319 H319         -43.3800   -19.1150   -25.4962 H       
 320 H320         -45.7912   -18.1941   -26.2713 H       
 321 H321         -46.4529   -17.1098   -25.1717 H       
 322 H322         -40.0276   -20.1960   -25.5531 H       
 323 H323           5.6004    11.7243    25.6643 H       
 324 H324           6.3560    13.2905    26.0445 H       
 325 H325           4.7751    12.8712    26.7468 H       
 326 H326           4.5182    14.4638    24.8637 H       
 327 H327           5.3435    13.3169    23.7812 H       
 328 H328           3.5709    11.6368    24.2098 H       
 329 H329           2.7456    12.7836    25.2923 H       
 330 H330           2.4886    14.3762    23.4092 H       
 331 H331           3.3139    13.2293    22.3266 H       
 332 H332           1.5413    11.5492    22.7553 H       
 333 H333           0.7160    12.6961    23.8378 H       
 334 H334           0.4591    14.2887    21.9546 H       
 335 H335           1.2843    13.1418    20.8721 H       
 336 H336          -0.4883    11.4617    21.3008 H       
 337 H337          -1.3135    12.6085    22.3833 H       
 338 H338          -1.5705    14.2011    20.5001 H       
 339 H339          -0.7452    13.0542    19.4176 H       
 340 H340          -2.5178    11.3741    19.8463 H       
 341 H341          -3.3431    12.5210    20.9288 H       
 342 H342          -3.6001    14.1136    19.0456 H       
 343 H343          -2.7748    12.9667    17.9631 H       
 344 H344          -4.5474    11.2866    18.3917 H       
 345 H345          -5.3727    12.4335    19.4743 H       
 346 H346          -5.6296    14.0260    17.5911 H       
 347 H347          -4.8043    12.8792    16.5086 H       
 348 H348          -6.5769    11.1990    16.9372 H       
 349 H349          -7.4022    12.3459    18.0197 H       
 350 H350          -7.6592    13.9385    16.1366 H       
 351 H351          -6.8339    12.7916    15.0541 H       
 352 H352          -9.4318    12.2584    16.5652 H       
 353 H353          -8.6065    11.1115    15.4827 H       
@<TRIPOS>BOND
   1    1    2 2
   2    1    4 1
   3    1    7 am
   4    3    4 1
   5    3  152 am
   6    3  169 1
   7    4  170 1
   8    4  171 1
   9    5    6 2
  10    5    8 1
  11    5   13 am
  12    7    8 1
  13    7  172 1
  14    8    9 1
  15    8  173 1
  16    9   10 1
  17    9  174 1
  18    9  175 1
  19   10  176 1
  20   11   12 2
  21   11   14 1
  22   11   17 am
  23   13   14 1
  24   13  177 1
  25   14  178 1
  26   14  179 1
  27   15   16 2
  28   15   18 1
  29   15   28 am
  30   17   18 1
  31   17  180 1
  32   18   19 1
  33   18  181 1
  34   19   20 1
  35   19  182 1
  36   19  183 1
  37   20   21 1
  38   20  184 1
  39   20  185 1
  40   21   22 1
  41   21  186 1
  42   21  187 1
  43   22   23 1
  44   22  188 1
  45   23   24 2
  46   23   25 1
  47   24  189 1
  48   25  190 1
  49   25  191 1
  50   26   27 2
  51   26   29 1
  52   26   36 am
  53   28   29 1
  54   28  192 1
  55   29   30 1
  56   29  193 1
  57   30   31 1
  58   30  194 1
  59   30  195 1
  60   31   32 1
  61   31   33 1
  62   31  196 1
  63   32  197 1
  64   32  198 1
  65   32  199 1
  66   33  200 1
  67   33  201 1
  68   33  202 1
  69   34   35 2
  70   34   37 1
  71   34   47 am
  72   36   37 1
  73   36  203 1
  74   37   38 1
  75   37  204 1
  76   38   39 1
  77   38  205 1
  78   38  206 1
  79   39   40 1
  80   39  207 1
  81   39  208 1
  82   40   41 1
  83   40  209 1
  84   40  210 1
  85   41   42 1
  86   41  211 1
  87   42   43 2
  88   42   44 1
  89   43  212 1
  90   44  213 1
  91   44  214 1
  92   45   46 2
  93   45   48 1
  94   45   53 am
  95   47   48 1
  96   47  215 1
  97   48   49 1
  98   48  216 1
  99   49   50 1
 100   49  217 1
 101   49  218 1
 102   50  219 1
 103   51   52 2
 104   51   54 1
 105   51   61 am
 106   53   54 1
 107   53  220 1
 108   54   55 1
 109   54  221 1
 110   55   56 1
 111   55   58 1
 112   55  222 1
 113   56   57 1
 114   56  223 1
 115   56  224 1
 116   57  225 1
 117   57  226 1
 118   57  227 1
 119   58  228 1
 120   58  229 1
 121   58  230 1
 122   59   60 2
 123   59   62 1
 124   59   72 am
 125   61   62 1
 126   61  231 1
 127   62   63 1
 128   62  232 1
 129   63   64 1
 130   63  233 1
 131   63  234 1
 132   64   65 1
 133   64  235 1
 134   64  236 1
 135   65   66 1
 136   65  237 1
 137   65  238 1
 138   66   67 1
 139   66  239 1
 140   67   68 2
 141   67   69 1
 142   68  240 1
 143   69  241 1
 144   69  242 1
 145   70   71 2
 146   70   73 1
 147   70   78 am
 148   72   73 1
 149   72  243 1
 150   73   74 1
 151   73  244 1
 152   74   75 1
 153   74  245 1
 154   74  246 1
 155   75  247 1
 156   76   77 2
 157   76   79 1
 158   76   86 am
 159   78   79 1
 160   78  248 1
 161   79   80 1
 162   79  249 1
 163   80   81 1
 164   80  250 1
 165   80  251 1
 166   81   82 1
 167   81   83 1
 168   81  252 1
 169   82  253 1
 170   82  254 1
 171   82  255 1
 172   83  256 1
 173   83  257 1
 174   83  258 1
 175   84   85 2
 176   84   87 1
 177   84   97 am
 178   86   87 1
 179   86  259 1
 180   87   88 1
 181   87  260 1
 182   88   89 1
 183   88  261 1
 184   88  262 1
 185   89   90 1
 186   89  263 1
 187   89  264 1
 188   90   91 1
 189   90  265 1
 190   90  266 1
 191   91   92 1
 192   91  267 1
 193   92   93 2
 194   92   94 1
 195   93  268 1
 196   94  269 1
 197   94  270 1
 198   95   96 2
 199   95   98 1
 200   95  105 am
 201   97   98 1
 202   97  271 1
 203   98   99 1
 204   98  272 1
 205   99  100 1
 206   99  273 1
 207   99  274 1
 208  100  101 2
 209  100  102 am
 210  102  275 1
 211  102  276 1
 212  103  104 2
 213  103  106 1
 214  103  113 am
 215  105  106 1
 216  105  277 1
 217  106  107 1
 218  106  278 1
 219  107  108 1
 220  107  110 1
 221  107  279 1
 222  108  109 1
 223  108  280 1
 224  108  281 1
 225  109  282 1
 226  109  283 1
 227  109  284 1
 228  110  285 1
 229  110  286 1
 230  110  287 1
 231  111  112 2
 232  111  114 1
 233  111  121 am
 234  113  114 1
 235  113  288 1
 236  114  115 1
 237  114  289 1
 238  115  116 1
 239  115  118 1
 240  115  290 1
 241  116  117 1
 242  116  291 1
 243  116  292 1
 244  117  293 1
 245  117  294 1
 246  117  295 1
 247  118  296 1
 248  118  297 1
 249  118  298 1
 250  119  120 2
 251  119  122 1
 252  119  131 am
 253  121  122 1
 254  121  299 1
 255  122  123 1
 256  122  300 1
 257  123  124 1
 258  123  301 1
 259  123  302 1
 260  124  125 2
 261  124  128 1
 262  125  126 1
 263  125  303 1
 264  126  127 1
 265  126  304 1
 266  127  128 2
 267  127  305 1
 268  129  130 2
 269  129  132 1
 270  129  145 am
 271  131  132 1
 272  131  306 1
 273  132  133 1
 274  132  307 1
 275  133  134 1
 276  133  308 1
 277  133  309 1
 278  134  135 2
 279  134  142 1
 280  135  136 1
 281  135  310 1
 282  136  137 1
 283  136  311 1
 284  137  138 ar
 285  137  142 ar
 286  138  139 ar
 287  138  312 1
 288  139  140 ar
 289  139  313 1
 290  140  141 ar
 291  140  314 1
 292  141  142 ar
 293  141  315 1
 294  143  144 2
 295  143  146 1
 296  143  151 1
 297  145  146 1
 298  145  316 1
 299  146  147 1
 300  146  317 1
 301  147  148 1
 302  147  318 1
 303  147  319 1
 304  148  149 2
 305  148  150 am
 306  150  320 1
 307  150  321 1
 308  151  322 1
 309  152  153 2
 310  152  168 1
 311  154  155 1
 312  154  323 1
 313  154  324 1
 314  154  325 1
 315  155  156 1
 316  155  326 1
 317  155  327 1
 318  156  157 1
 319  156  328 1
 320  156  329 1
 321  157  158 1
 322  157  330 1
 323  157  331 1
 324  158  159 1
 325  158  332 1
 326  158  333 1
 327  159  160 1
 328  159  334 1
 329  159  335 1
 330  160  161 1
 331  160  336 1
 332  160  337 1
 333  161  162 1
 334  161  338 1
 335  161  339 1
 336  162  163 1
 337  162  340 1
 338  162  341 1
 339  163  164 1
 340  163  342 1
 341  163  343 1
 342  164  165 1
 343  164  344 1
 344  164  345 1
 345  165  166 1
 346  165  346 1
 347  165  347 1
 348  166  167 1
 349  166  348 1
 350  166  349 1
 351  167  168 1
 352  167  350 1
 353  167  351 1
 354  168  352 1
 355  168  353 1

#	End of record

