#	Name: ASD03090707
#	Creating user name:	WinNT
#	Creation time:	15. 06. 2019 20:29

#	Modifying user name:	WinNT
#	Modification time:	15. 06. 2019 20:29

#	Program:	/corina/corina34_cracker 3.40 0067  02.08.2006

@<TRIPOS>MOLECULE
ASD03090707
  33   34    0    0    0
SMALL
NO_CHARGES


@<TRIPOS>ATOM
   1 N1            -0.0088     1.3369    -0.4202 N.am    
   2 C2            -0.1087     0.1853     0.2728 C.2     
   3 O3             0.8206    -0.1937     0.9591 O.2     
   4 N4            -1.2386    -0.5462     0.2049 N.am    
   5 O5            -2.1560    -3.5015     1.6674 O.3     
   6 N6            -2.3672    -2.5483     0.9542 N.2     
   7 C7            -1.3419    -1.7380     0.9221 C.2     
   8 C8            -0.3540    -2.3151     1.7637 C.2     
   9 C9            -0.9338    -3.4499     2.2167 C.2     
  10 C10           -0.3252    -4.4592     3.1558 C.3     
  11 C11            1.1144     2.1585    -0.2557 C.ar    
  12 C12            0.9611     3.5360    -0.1741 C.ar    
  13 C13            2.0680     4.3462    -0.0115 C.ar    
  14 C14            3.3331     3.7848     0.0699 C.ar    
  15 C15            3.4883     2.4069    -0.0120 C.ar    
  16 C16            2.3800     1.5949    -0.1686 C.ar    
  17 N17           -0.3890     4.1367    -0.2618 N.pl3   
  18 O18           -0.5163     5.3478    -0.2854 O.2     
  19 O19           -1.3725     3.4198    -0.3105 O.2     
  20 O20            4.4225     4.5835     0.2296 O.3     
  21 C21            4.1892     5.9913     0.3057 C.3     
  22 F22            4.7211     1.8599     0.0669 F       
  23 H23           -0.7126     1.5951    -1.0358 H       
  24 H24           -1.9800    -0.2439    -0.3426 H       
  25 H25            0.6316    -1.9357     1.9896 H       
  26 H26           -1.0372    -5.2650     3.3342 H       
  27 H27            0.5823    -4.8679     2.7115 H       
  28 H28           -0.0806    -3.9746     4.1011 H       
  29 H29            1.9479     5.4176     0.0519 H       
  30 H30            2.4995     0.5232    -0.2279 H       
  31 H31            3.5411     6.2068     1.1552 H       
  32 H32            5.1391     6.5107     0.4326 H       
  33 H33            3.7096     6.3303    -0.6125 H       
@<TRIPOS>BOND
   1    1    2 am
   2    1   11 1
   3    1   23 1
   4    2    3 2
   5    2    4 am
   6    4    7 1
   7    4   24 1
   8    5    6 1
   9    5    9 1
  10    6    7 2
  11    7    8 1
  12    8    9 2
  13    8   25 1
  14    9   10 1
  15   10   26 1
  16   10   27 1
  17   10   28 1
  18   11   12 ar
  19   11   16 ar
  20   12   13 ar
  21   12   17 1
  22   13   14 ar
  23   13   29 1
  24   14   15 ar
  25   14   20 1
  26   15   16 ar
  27   15   22 1
  28   16   30 1
  29   17   18 2
  30   17   19 2
  31   20   21 1
  32   21   31 1
  33   21   32 1
  34   21   33 1

#	End of record

