#	Name: ASD03320168
#	Creating user name:	WinNT
#	Creation time:	15. 06. 2019 20:36

#	Modifying user name:	WinNT
#	Modification time:	15. 06. 2019 20:36

#	Program:	/corina/corina34_cracker 3.40 0067  02.08.2006

@<TRIPOS>MOLECULE
ASD03320168
  38   40    0    0    0
SMALL
NO_CHARGES


@<TRIPOS>ATOM
   1 C1            -0.0077     1.3437    -0.1946 C.ar    
   2 C2             0.0217    -0.0349     0.0276 C.ar    
   3 C3            -1.1531    -0.7586     0.0440 C.ar    
   4 C4            -2.3651    -0.1247    -0.1593 C.ar    
   5 C5            -2.4070     1.2527    -0.3825 C.ar    
   6 C6            -1.2278     1.9887    -0.3945 C.ar    
   7 C7             1.2508     2.1180    -0.2119 C.2     
   8 O8             1.2237     3.3179    -0.4055 O.2     
   9 N9             2.4288     1.4939    -0.0131 N.am    
  10 C10            3.6277     2.2086    -0.1264 C.ar    
  11 C11           -3.7088     1.9310    -0.6008 C.ar    
  12 C12            3.6885     3.5331     0.2864 C.ar    
  13 C13            4.8712     4.2370     0.1748 C.ar    
  14 C14            5.9984     3.6214    -0.3496 C.ar    
  15 C15            5.9382     2.2985    -0.7627 C.ar    
  16 C16            4.7578     1.5915    -0.6464 C.ar    
  17 O17            7.1626     4.3152    -0.4592 O.3     
  18 C18            8.2835     3.6191    -1.0079 C.3     
  19 F19            7.9775     3.1911    -2.3042 F       
  20 F20            9.3896     4.4747    -1.0482 F       
  21 F21            8.5806     2.5101    -0.2086 F       
  22 Cl22          -3.8376    -1.0438    -0.1375 Cl      
  23 C23           -4.6262     1.4406    -1.5333 C.ar    
  24 N24           -5.7742     2.0754    -1.6965 N.ar    
  25 C25           -6.0575     3.1549    -0.9949 C.ar    
  26 N26           -5.2202     3.6508    -0.1056 N.ar    
  27 C27           -4.0530     3.0743     0.1245 C.ar    
  28 H28            0.9654    -0.5353     0.1866 H       
  29 H29           -1.1258    -1.8245     0.2158 H       
  30 H30           -1.2557     3.0546    -0.5664 H       
  31 H31            2.4461     0.5497     0.2085 H       
  32 H32            2.8110     4.0125     0.6944 H       
  33 H33            4.9186     5.2672     0.4955 H       
  34 H34            6.8160     1.8201    -1.1715 H       
  35 H35            4.7111     0.5616    -0.9680 H       
  36 H36           -4.4009     0.5570    -2.1119 H       
  37 H37           -7.0049     3.6486    -1.1538 H       
  38 H38           -3.3723     3.4861     0.8549 H       
@<TRIPOS>BOND
   1    1    2 ar
   2    1    7 1
   3    1    6 ar
   4    2    3 ar
   5    2   28 1
   6    3    4 ar
   7    3   29 1
   8    4    5 ar
   9    4   22 1
  10    5    6 ar
  11    5   11 1
  12    6   30 1
  13    7    8 2
  14    7    9 am
  15    9   10 1
  16    9   31 1
  17   10   12 ar
  18   10   16 ar
  19   11   23 ar
  20   11   27 ar
  21   12   13 ar
  22   12   32 1
  23   13   14 ar
  24   13   33 1
  25   14   15 ar
  26   14   17 1
  27   15   16 ar
  28   15   34 1
  29   16   35 1
  30   17   18 1
  31   18   19 1
  32   18   20 1
  33   18   21 1
  34   23   24 ar
  35   23   36 1
  36   24   25 ar
  37   25   26 ar
  38   25   37 1
  39   26   27 ar
  40   27   38 1

#	End of record

