#	Name: ASD00170741
#	Creating user name:	WinNT
#	Creation time:	15. 06. 2019 18:32

#	Modifying user name:	WinNT
#	Modification time:	15. 06. 2019 18:32

#	Program:	/corina/corina34_cracker 3.40 0067  02.08.2006

@<TRIPOS>MOLECULE
ASD00170741
  40   40    0    0    0
SMALL
NO_CHARGES


@<TRIPOS>ATOM
   1 N1            -0.5636    -0.9152     0.1732 N.1     
   2 C2            -0.2694     0.1810     0.1259 C.1     
   3 C3             0.1016     1.5629     0.0663 C.2     
   4 C4             1.4037     1.9103     0.0290 C.2     
   5 C5             2.4697     0.8521     0.1509 C.3     
   6 C6             2.9217     0.4202    -1.2455 C.3     
   7 C7             3.4860     1.6285    -1.9954 C.3     
   8 C8             4.0040    -0.6542    -1.1217 C.3     
   9 C9             1.7271    -0.1457    -2.0159 C.3     
  10 C10            1.7932     3.3569    -0.1346 C.3     
  11 C11           -0.9420     2.6068     0.0397 C.2     
  12 O12           -1.0478     3.3844     0.9681 O.2     
  13 C13           -1.8579     2.7065    -1.1155 C.ar    
  14 C14           -2.7789     3.7537    -1.1923 C.ar    
  15 C15           -3.6306     3.8409    -2.2737 C.ar    
  16 C16           -3.5743     2.8937    -3.2810 C.ar    
  17 C17           -2.6646     1.8532    -3.2112 C.ar    
  18 C18           -1.8028     1.7572    -2.1386 C.ar    
  19 C19           -4.5084     2.9954    -4.4592 C.3     
  20 H20            3.3208     1.2552     0.6998 H       
  21 H21            2.0677    -0.0088     0.6852 H       
  22 H22            4.3371     2.0317    -1.4465 H       
  23 H23            3.8080     1.3209    -2.9902 H       
  24 H24            2.7150     2.3939    -2.0836 H       
  25 H25            3.6019    -1.5151    -0.5875 H       
  26 H26            4.3259    -0.9619    -2.1166 H       
  27 H27            4.8550    -0.2510    -0.5729 H       
  28 H28            0.9560     0.6197    -2.1041 H       
  29 H29            2.0490    -0.4534    -3.0108 H       
  30 H30            1.3250    -1.0066    -1.4817 H       
  31 H31            1.7893     3.8466     0.8391 H       
  32 H32            2.7916     3.4175    -0.5678 H       
  33 H33            1.0805     3.8527    -0.7936 H       
  34 H34           -2.8244     4.4933    -0.4065 H       
  35 H35           -4.3432     4.6502    -2.3344 H       
  36 H36           -2.6265     1.1170    -4.0004 H       
  37 H37           -1.0930     0.9449    -2.0855 H       
  38 H38           -4.0414     3.5921    -5.2427 H       
  39 H39           -4.7216     1.9970    -4.8411 H       
  40 H40           -5.4380     3.4706    -4.1459 H       
@<TRIPOS>BOND
   1    1    2 3
   2    2    3 1
   3    3    4 2
   4    3   11 1
   5    4    5 1
   6    4   10 1
   7    5    6 1
   8    5   20 1
   9    5   21 1
  10    6    7 1
  11    6    8 1
  12    6    9 1
  13    7   22 1
  14    7   23 1
  15    7   24 1
  16    8   25 1
  17    8   26 1
  18    8   27 1
  19    9   28 1
  20    9   29 1
  21    9   30 1
  22   10   31 1
  23   10   32 1
  24   10   33 1
  25   11   12 2
  26   11   13 1
  27   13   14 ar
  28   13   18 ar
  29   14   15 ar
  30   14   34 1
  31   15   16 ar
  32   15   35 1
  33   16   17 ar
  34   16   19 1
  35   17   18 ar
  36   17   36 1
  37   18   37 1
  38   19   38 1
  39   19   39 1
  40   19   40 1

#	End of record

