#	Name: ASD04882339
#	Creating user name:	WinNT
#	Creation time:	15. 06. 2019 20:54

#	Modifying user name:	WinNT
#	Modification time:	15. 06. 2019 20:54

#	Program:	/corina/corina34_cracker 3.40 0067  02.08.2006

@<TRIPOS>MOLECULE
ASD04882339
  73   77    0    0    0
SMALL
NO_CHARGES


@<TRIPOS>ATOM
   1 N1            -0.0169     1.3967     0.0097 N.am    
   2 C2             0.1112     0.0024    -0.0345 C.ar    
   3 C3            -1.0253    -0.8073     0.0449 C.ar    
   4 C4            -0.8996    -2.1911     0.0016 C.ar    
   5 C5             0.3444    -2.7692    -0.1201 C.ar    
   6 C6             1.4851    -1.9654    -0.2000 C.ar    
   7 C7             1.3610    -0.5737    -0.1624 C.ar    
   8 N8            -2.2852    -0.2271     0.1680 N.3     
   9 C9            -3.1505    -0.6029    -0.9588 C.3     
  10 C10           -2.9079    -0.5872     1.4494 C.3     
  11 C11           -4.2525     0.1322     1.5801 C.3     
  12 N12           -5.1178    -0.2437     0.4534 N.3     
  13 C13           -4.4950     0.1164    -0.8281 C.3     
  14 C14            2.8177    -2.5849    -0.3297 C.2     
  15 O15            3.8095    -1.8849    -0.3992 O.2     
  16 C16            0.9202     2.1780    -0.5629 C.2     
  17 C17            0.7425     3.6332    -0.5937 C.2     
  18 O18            1.9139     1.6757    -1.0545 O.2     
  19 N19            2.9358    -3.9269    -0.3713 N.am    
  20 O20           -0.3061     4.3147    -0.0876 O.3     
  21 C21           -0.1276     5.6254    -0.2979 C.2     
  22 C22            1.0445     5.8063    -0.9456 C.2     
  23 C23            1.6123     4.5365    -1.1344 C.2     
  24 C24            4.2591    -4.5421    -0.5002 C.3     
  25 C25            4.1135    -6.0650    -0.5232 C.3     
  26 C26           -6.3815     0.3383     0.5768 C.ar    
  27 C27           -6.5099     1.7206     0.6208 C.ar    
  28 C28           -7.5133    -0.4640     0.6502 C.ar    
  29 C29           -8.7611     0.1147     0.7723 C.ar    
  30 C30           -8.8850     1.4913     0.8210 C.ar    
  31 C31           -7.7611     2.2929     0.7429 C.ar    
  32 C32            5.3520    -8.2075    -0.6804 C.2     
  33 C33            5.4955    -6.7075    -0.6578 C.3     
  34 C34           -1.0777     6.7185     0.1188 C.3     
  35 C35            5.1819    -8.9744    -1.7822 C.2     
  36 N36            5.0965   -10.2596    -1.3796 N.pl3   
  37 N37            5.2180   -10.2832     0.0158 N.2     
  38 C38            5.3772    -9.0535     0.4331 C.2     
  39 C39           -7.3795    -1.9640     0.5962 C.3     
  40 H40           -0.7821     1.7998     0.4490 H       
  41 H41           -1.7795    -2.8142     0.0639 H       
  42 H42            0.4388    -3.8446    -0.1534 H       
  43 H43            2.2406     0.0499    -0.2243 H       
  44 H44           -2.6734    -0.3148    -1.8956 H       
  45 H45           -3.3123    -1.6808    -0.9493 H       
  46 H46           -3.0670    -1.6649     1.4863 H       
  47 H47           -2.2541    -0.2875     2.2684 H       
  48 H48           -4.7296    -0.1560     2.5169 H       
  49 H49           -4.0907     1.2101     1.5706 H       
  50 H50           -4.3360     1.1941    -0.8650 H       
  51 H51           -5.1489    -0.1832    -1.6471 H       
  52 H52            2.1446    -4.4853    -0.3159 H       
  53 H53            1.4670     6.7505    -1.2559 H       
  54 H54            2.5515     4.3161    -1.6199 H       
  55 H55            4.7266    -4.2078    -1.4264 H       
  56 H56            4.8800    -4.2492     0.3465 H       
  57 H57            3.6460    -6.3993     0.4030 H       
  58 H58            3.4926    -6.3578    -1.3699 H       
  59 H59           -5.6324     2.3473     0.5598 H       
  60 H60           -9.6414    -0.5085     0.8294 H       
  61 H61           -9.8621     1.9413     0.9158 H       
  62 H62           -7.8613     3.3675     0.7813 H       
  63 H63            5.9629    -6.3732    -1.5840 H       
  64 H64            6.1163    -6.4146     0.1889 H       
  65 H65           -1.9391     6.2789     0.6217 H       
  66 H66           -0.5695     7.4018     0.7992 H       
  67 H67           -1.4117     7.2653    -0.7630 H       
  68 H68            5.1245    -8.6213    -2.8012 H       
  69 H69            4.9724   -11.0308    -1.9547 H       
  70 H70            5.4992    -8.7442     1.4607 H       
  71 H71           -7.2602    -2.3548     1.6067 H       
  72 H72           -8.2739    -2.3926     0.1442 H       
  73 H73           -6.5074    -2.2297    -0.0014 H       
@<TRIPOS>BOND
   1    1    2 1
   2    1   16 am
   3    1   40 1
   4    2    3 ar
   5    2    7 ar
   6    3    4 ar
   7    3    8 1
   8    4    5 ar
   9    4   41 1
  10    5    6 ar
  11    5   42 1
  12    6    7 ar
  13    6   14 1
  14    7   43 1
  15    8    9 1
  16    8   10 1
  17    9   13 1
  18    9   44 1
  19    9   45 1
  20   10   11 1
  21   10   46 1
  22   10   47 1
  23   11   12 1
  24   11   48 1
  25   11   49 1
  26   12   13 1
  27   12   26 1
  28   13   50 1
  29   13   51 1
  30   14   15 2
  31   14   19 am
  32   16   18 2
  33   16   17 1
  34   17   20 1
  35   17   23 2
  36   19   24 1
  37   19   52 1
  38   20   21 1
  39   21   22 2
  40   21   34 1
  41   22   23 1
  42   22   53 1
  43   23   54 1
  44   24   25 1
  45   24   55 1
  46   24   56 1
  47   25   33 1
  48   25   57 1
  49   25   58 1
  50   26   27 ar
  51   26   28 ar
  52   27   31 ar
  53   27   59 1
  54   28   29 ar
  55   28   39 1
  56   29   30 ar
  57   29   60 1
  58   30   31 ar
  59   30   61 1
  60   31   62 1
  61   32   33 1
  62   32   35 2
  63   32   38 1
  64   33   63 1
  65   33   64 1
  66   34   65 1
  67   34   66 1
  68   34   67 1
  69   35   36 1
  70   35   68 1
  71   36   37 1
  72   36   69 1
  73   37   38 2
  74   38   70 1
  75   39   71 1
  76   39   72 1
  77   39   73 1

#	End of record

