#	Name: ASD01001280
#	Creating user name:	WinNT
#	Creation time:	15. 06. 2019 18:55

#	Modifying user name:	WinNT
#	Modification time:	15. 06. 2019 18:55

#	Program:	/corina/corina34_cracker 3.40 0067  02.08.2006

@<TRIPOS>MOLECULE
ASD01001280
  31   32    0    0    0
SMALL
NO_CHARGES


@<TRIPOS>ATOM
   1 C1            -0.3449     1.9905     0.0380 C.ar    
   2 C2            -0.4439     0.6181     0.1691 C.ar    
   3 C3             0.7134    -0.1412     0.2748 C.ar    
   4 C4             1.9347     0.5084     0.2450 C.ar    
   5 C5             1.9607     1.8956     0.1104 C.ar    
   6 N6             0.8311     2.5848     0.0124 N.ar    
   7 C7             3.2611     2.6068     0.0773 C.ar    
   8 C8             3.2949     3.9944    -0.0571 C.ar    
   9 C9             4.5048     4.6536    -0.0872 C.ar    
  10 C10            5.6914     3.9360     0.0162 C.ar    
  11 C11            5.6600     2.5523     0.1498 C.ar    
  12 C12            4.4522     1.8897     0.1861 C.ar    
  13 C13           -1.7956    -0.0476     0.1974 C.3     
  14 F14           -2.7960     0.9227     0.0758 F       
  15 F15           -1.8921    -0.9526    -0.8651 F       
  16 F16           -1.9535    -0.7311     1.4079 F       
  17 N17            6.9146     4.6051    -0.0146 N.am    
  18 S18            7.4277     5.4539     1.3116 S.o2    
  19 O19            8.7228     5.9464     0.9963 O.2     
  20 O20            6.3476     6.2953     1.6920 O.2     
  21 N21            7.6284     4.3651     2.5430 N.am    
  22 H22           -1.2433     2.5835    -0.0490 H       
  23 H23            0.6616    -1.2149     0.3784 H       
  24 H24            2.8548    -0.0514     0.3251 H       
  25 H25            2.3735     4.5521    -0.1378 H       
  26 H26            4.5314     5.7282    -0.1916 H       
  27 H27            6.5828     1.9968     0.2296 H       
  28 H28            4.4283     0.8149     0.2902 H       
  29 H29            7.4649     4.5732    -0.8127 H       
  30 H30            7.4201     3.4284     2.4010 H       
  31 H31            7.9543     4.6639     3.4064 H       
@<TRIPOS>BOND
   1    1    2 ar
   2    1    6 ar
   3    1   22 1
   4    2    3 ar
   5    2   13 1
   6    3    4 ar
   7    3   23 1
   8    4    5 ar
   9    4   24 1
  10    5    6 ar
  11    5    7 1
  12    7    8 ar
  13    7   12 ar
  14    8    9 ar
  15    8   25 1
  16    9   10 ar
  17    9   26 1
  18   10   11 ar
  19   10   17 1
  20   11   12 ar
  21   11   27 1
  22   12   28 1
  23   13   14 1
  24   13   15 1
  25   13   16 1
  26   17   18 am
  27   17   29 1
  28   18   19 2
  29   18   20 2
  30   18   21 am
  31   21   30 1
  32   21   31 1

#	End of record

