#	Name: ASD02038592
#	Creating user name:	WinNT
#	Creation time:	15. 06. 2019 20:17

#	Modifying user name:	WinNT
#	Modification time:	15. 06. 2019 20:17

#	Program:	/corina/corina34_cracker 3.40 0067  02.08.2006

@<TRIPOS>MOLECULE
ASD02038592
  54   56    0    0    0
SMALL
NO_CHARGES


@<TRIPOS>ATOM
   1 C1            -0.0167     1.3805     0.0096 C.ar    
   2 C2             0.0021    -0.0041     0.0020 C.ar    
   3 C3            -1.1851    -0.7122     0.0100 C.ar    
   4 C4            -2.3965    -0.0336     0.0257 C.ar    
   5 C5            -2.4117     1.3555     0.0333 C.ar    
   6 C6            -1.2229     2.0583     0.0306 C.ar    
   7 N7            -3.5982    -0.7467     0.0333 N.pl3   
   8 C8            -4.8755    -0.0295     0.0499 C.3     
   9 C9            -6.0264    -1.0376     0.0553 C.3     
  10 N10           -7.3037    -0.3204     0.0719 N.am    
  11 C11           -8.4627    -1.0082     0.0792 C.2     
  12 C12           -9.7767    -0.2704     0.0962 C.3     
  13 C13          -10.9276    -1.2785     0.1017 C.3     
  14 C14          -12.2415    -0.5407     0.1187 C.ar    
  15 Cl15           1.4756     2.2675     0.0001 Cl      
  16 Cl16           1.5173    -0.8510    -0.0182 Cl      
  17 C17          -12.8549    -0.1960    -1.0715 C.ar    
  18 C18          -12.8344    -0.2147     1.3245 C.ar    
  19 C19          -14.0391     0.4612     1.3428 C.ar    
  20 C20          -14.6540     0.8129     0.1499 C.ar    
  21 C21          -14.0594     0.4804    -1.0586 C.ar    
  22 O22          -15.8393     1.4775     0.1653 O.3     
  23 O23           -8.4483    -2.2209     0.0722 O.2     
  24 C24          -16.4146     1.8073    -1.1005 C.3     
  25 C25          -17.7162     2.5360    -0.8862 C.ar    
  26 C26          -17.7276     3.9143    -0.7820 C.ar    
  27 C27          -18.9216     4.5827    -0.5853 C.ar    
  28 C28          -20.1041     3.8727    -0.4934 C.ar    
  29 C29          -20.0928     2.4944    -0.5986 C.ar    
  30 C30          -18.8993     1.8264    -0.7996 C.ar    
  31 H31           -1.1705    -1.7921     0.0037 H       
  32 H32           -3.3526     1.8855     0.0451 H       
  33 H33           -1.2347     3.1383     0.0368 H       
  34 H34           -3.5866    -1.7166     0.0277 H       
  35 H35           -4.9320     0.5913     0.9440 H       
  36 H36           -4.9494     0.6015    -0.8359 H       
  37 H37           -5.9699    -1.6584    -0.8388 H       
  38 H38           -5.9525    -1.6686     0.9411 H       
  39 H39           -7.3153     0.6495     0.0775 H       
  40 H40           -9.8332     0.3505     0.9904 H       
  41 H41           -9.8505     0.3606    -0.7895 H       
  42 H42          -10.8710    -1.8993    -0.7924 H       
  43 H43          -10.8537    -1.9095     0.9874 H       
  44 H44          -12.3919    -0.4554    -2.0121 H       
  45 H45          -12.3555    -0.4890     2.2528 H       
  46 H46          -14.5020     0.7153     2.2849 H       
  47 H47          -14.5361     0.7530    -1.9886 H       
  48 H48          -15.7279     2.4458    -1.6564 H       
  49 H49          -16.5985     0.8933    -1.6653 H       
  50 H50          -16.8037     4.4690    -0.8537 H       
  51 H51          -18.9304     5.6595    -0.5031 H       
  52 H52          -21.0368     4.3949    -0.3391 H       
  53 H53          -21.0166     1.9397    -0.5265 H       
  54 H54          -18.8905     0.7496    -0.8818 H       
@<TRIPOS>BOND
   1    1    2 ar
   2    1   15 1
   3    1    6 ar
   4    2    3 ar
   5    2   16 1
   6    3    4 ar
   7    3   31 1
   8    4    5 ar
   9    4    7 1
  10    5    6 ar
  11    5   32 1
  12    6   33 1
  13    7    8 1
  14    7   34 1
  15    8    9 1
  16    8   35 1
  17    8   36 1
  18    9   10 1
  19    9   37 1
  20    9   38 1
  21   10   11 am
  22   10   39 1
  23   11   12 1
  24   11   23 2
  25   12   13 1
  26   12   40 1
  27   12   41 1
  28   13   14 1
  29   13   42 1
  30   13   43 1
  31   14   17 ar
  32   14   18 ar
  33   17   21 ar
  34   17   44 1
  35   18   19 ar
  36   18   45 1
  37   19   20 ar
  38   19   46 1
  39   20   21 ar
  40   20   22 1
  41   21   47 1
  42   22   24 1
  43   24   25 1
  44   24   48 1
  45   24   49 1
  46   25   26 ar
  47   25   30 ar
  48   26   27 ar
  49   26   50 1
  50   27   28 ar
  51   27   51 1
  52   28   29 ar
  53   28   52 1
  54   29   30 ar
  55   29   53 1
  56   30   54 1

#	End of record

