#	Name: ASD04570013
#	Creating user name:	WinNT
#	Creation time:	15. 06. 2019 20:49

#	Modifying user name:	WinNT
#	Modification time:	15. 06. 2019 20:49

#	Program:	/corina/corina34_cracker 3.40 0067  02.08.2006

@<TRIPOS>MOLECULE
ASD04570013
 269  273    0    0    0
SMALL
NO_CHARGES


@<TRIPOS>ATOM
   1 C1            11.2258    -0.0874    -5.1671 C.3     
   2 C2            11.9373     0.5702    -3.9830 C.3     
   3 C3            11.6010     2.0388    -3.9475 C.2     
   4 N4            11.4963    -0.0635    -2.7333 N.3     
   5 O5            11.0482     2.5110    -2.9767 O.2     
   6 C6            11.6643    -1.5491    -5.2778 C.3     
   7 C7            10.8616    -2.2401    -6.3819 C.3     
   8 C8            13.1551    -1.6100    -5.6167 C.3     
   9 C9             9.9879    -1.9212    -1.1466 C.3     
  10 C10            9.6390    -0.4348    -1.2448 C.3     
  11 C11           10.3511     0.3216    -0.1531 C.2     
  12 N12           10.0607     0.0817    -2.5538 N.3     
  13 O13           11.1330     1.2040    -0.4374 O.2     
  14 O14           11.4082    -2.0786    -1.1539 O.3     
  15 C15           10.0417     2.0366     2.5169 C.3     
  16 C16           10.8113     0.7527     2.2005 C.3     
  17 C17           10.8885    -0.1046     3.4375 C.2     
  18 N18           10.1190     0.0174     1.1392 N.am    
  19 O19           10.4121    -1.2199     3.4331 O.2     
  20 C20           10.0699     2.9478     1.3170 C.ar    
  21 C21            9.0747     2.8611     0.3610 C.ar    
  22 C22            9.0982     3.6952    -0.7399 C.ar    
  23 C23           10.1215     4.6206    -0.8859 C.ar    
  24 C24           11.1188     4.7056     0.0747 C.ar    
  25 C25           11.0877     3.8730     1.1767 C.ar    
  26 O26           10.1471     5.4420    -1.9682 O.3     
  27 C27           12.7832    -1.3822     5.6610 C.3     
  28 C28           11.5618    -0.4652     5.7513 C.3     
  29 C29           11.6848     0.4170     6.9670 C.2     
  30 N30           11.4868     0.3682     4.5488 N.am    
  31 O31           11.7075     1.6230     6.8412 O.2     
  32 N32           13.6470    -4.2173     3.2984 N.pl3   
  33 C33           14.6234    -5.1449     3.0217 C.2     
  34 N34           15.7046    -5.1895     3.7482 N.2     
  35 N35           14.4592    -6.0254     1.9787 N.pl3   
  36 C36           12.6005    -2.3621     4.5002 C.3     
  37 C37           13.8220    -3.2791     4.4099 C.3     
  38 C38           10.4957     1.1628     9.8298 C.3     
  39 C39           11.8890     0.7232     9.3756 C.3     
  40 C40           12.5610    -0.0425    10.4861 C.2     
  41 N41           11.7695    -0.1343     8.1939 N.am    
  42 O42           12.6643    -1.2488    10.4147 O.2     
  43 S43            9.7480     2.2148     8.5551 S.3     
  44 C44           13.0830     2.0733    11.7264 C.3     
  45 C45           13.6971     2.3602    13.1128 C.3     
  46 C46           13.6305    -0.0150    12.7579 C.3     
  47 C47           12.8884    -1.2811    13.1003 C.2     
  48 N48           13.0472     0.6132    11.5585 N.am    
  49 O49           11.7443    -1.4331    12.7277 O.2     
  50 C50           13.4520     1.0355    13.8823 C.3     
  51 C51           12.8980    -4.4679    12.9956 C.3     
  52 C52           12.7748    -3.4754    14.1536 C.3     
  53 C53           13.3652    -4.0822    15.4002 C.2     
  54 N54           13.4962    -2.2446    13.8207 N.am    
  55 O55           14.2969    -3.5400    15.9560 O.2     
  56 S56           12.1873    -3.7374    11.4950 S.3     
  57 C57           12.7950    -5.1721    18.3419 C.3     
  58 C58           13.4319    -5.8174    17.1096 C.3     
  59 C59           13.1622    -7.3000    17.1229 C.2     
  60 N60           12.8579    -5.2275    15.8976 N.am    
  61 O61           12.5507    -7.8134    16.2100 O.2     
  62 N62           12.8982    -1.6264    19.6775 N.pl3   
  63 C63           12.4383    -0.8357    20.7038 C.2     
  64 N64           12.7605     0.4265    20.7488 N.2     
  65 N65           11.6386    -1.3763    21.6828 N.pl3   
  66 C66           13.1731    -3.6905    18.3946 C.3     
  67 C67           12.5361    -3.0451    19.6270 C.3     
  68 C68           14.4219   -10.2195    17.3596 C.3     
  69 C69           13.3383    -9.4968    18.1623 C.3     
  70 C70           13.3490    -9.9965    19.5840 C.2     
  71 N71           13.6005    -8.0555    18.1494 N.am    
  72 O72           13.5553    -9.2248    20.4966 O.2     
  73 C73           14.3312    -9.8108    15.9119 C.ar    
  74 C74           15.0465    -8.7195    15.4557 C.ar    
  75 C75           14.9634    -8.3446    14.1278 C.ar    
  76 C76           14.1652    -9.0613    13.2559 C.ar    
  77 C77           13.4506   -10.1532    13.7119 C.ar    
  78 C78           13.5372   -10.5307    15.0389 C.ar    
  79 C79           11.7572   -11.5821    21.8464 C.3     
  80 C80           13.1396   -11.7869    21.2235 C.3     
  81 C81           13.4847   -13.2538    21.2378 C.2     
  82 N82           13.1292   -11.3011    19.8414 N.am    
  83 O83           13.7007   -13.8361    20.1960 O.2     
  84 C84           11.4639   -10.1072    21.9445 C.ar    
  85 C85           10.8345    -9.4567    20.8997 C.ar    
  86 C86           10.5655    -8.1038    20.9896 C.ar    
  87 C87           10.9255    -7.4014    22.1245 C.ar    
  88 C88           11.5542    -8.0521    23.1697 C.ar    
  89 C89           11.8193    -9.4059    23.0815 C.ar    
  90 C90           15.4096   -15.5109    22.4067 C.3     
  91 C91           13.8887   -15.3446    22.4220 C.3     
  92 C92           13.3263   -15.9809    23.6670 C.2     
  93 N93           13.5532   -13.9186    22.4081 N.am    
  94 O94           12.7063   -15.3093    24.4641 O.2     
  95 C95           15.9678   -14.9766    21.0862 C.3     
  96 C96           17.4658   -15.1404    21.0711 C.2     
  97 O97           18.0291   -15.6338    22.0193 O.2     
  98 O98           18.1742   -14.7381    20.0043 O.3     
  99 C99           11.5086   -18.3128    24.8605 C.3     
 100 C100          12.9656   -17.9148    25.1047 C.3     
 101 C101          13.7704   -19.1413    25.4495 C.2     
 102 N102          13.5123   -17.2962    23.8945 N.am    
 103 O103          14.7083   -19.4668    24.7528 O.2     
 104 O104          11.4543   -19.3301    23.8584 O.3     
 105 C105          14.1106   -21.3529    28.3657 C.3     
 106 C106          14.2302   -21.0691    26.8671 C.3     
 107 C107          13.7065   -22.2486    26.0890 C.2     
 108 N108          13.4479   -19.8767    26.5319 N.am    
 109 O109          12.7757   -22.1077    25.3326 O.2     
 110 C110          14.7455   -20.2283    29.1423 C.2     
 111 N111          14.1071   -19.1374    29.6679 N.pl3   
 112 C112          15.0443   -18.3835    30.2819 C.2     
 113 N113          16.2038   -18.9675    30.1493 N.2     
 114 C114          16.0490   -20.1063    29.4577 C.2     
 115 C115          12.7026     5.0165    -4.2407 C.3     
 116 C116          11.5873     4.2551    -4.9600 C.3     
 117 C117          11.4524     4.7737    -6.3685 C.2     
 118 N118          11.9143     2.8274    -4.9945 N.am    
 119 O119          11.6136     4.0246    -7.3086 O.2     
 120 C120           9.6011     6.3139    -8.4581 C.3     
 121 C121          11.0215     6.5743    -7.9526 C.3     
 122 C122          11.2977     8.0556    -7.9710 C.2     
 123 N123          11.1527     6.0700    -6.5834 N.am    
 124 O124          11.5766     8.6333    -6.9418 O.2     
 125 O125           8.6729     7.0763    -7.6840 O.3     
 126 C126          13.0106    10.4150    -9.2616 C.3     
 127 C127          11.5032    10.1786    -9.1492 C.3     
 128 C128          10.8071    10.8047   -10.3301 C.2     
 129 N129          11.2347     8.7385    -9.1313 N.am    
 130 O130          10.1513    10.1158   -11.0826 O.2     
 131 C131          13.7045     9.8895    -8.0033 C.3     
 132 C132          15.2207    10.0118    -8.1682 C.3     
 133 C133          13.2553    10.7102    -6.7927 C.3     
 134 C134           8.7898    13.0655   -11.3226 C.3     
 135 C135          10.2366    12.7388   -11.6979 C.3     
 136 C136          10.9525    14.0059   -12.0891 C.2     
 137 N137          10.9133    12.1301   -10.5499 N.am    
 138 O138          11.3453    14.1524   -13.2216 O.2     
 139 H139          10.1476    -0.0422    -5.0138 H       
 140 H140          11.4847     0.4401    -6.0851 H       
 141 H141          13.0148     0.4468    -4.0924 H       
 142 H142          11.7678    -1.0349    -2.7050 H       
 143 H143          11.4866    -2.0546    -4.3286 H       
 144 H144          11.0394    -1.7346    -7.3310 H       
 145 H145          11.1741    -3.2814    -6.4607 H       
 146 H146           9.7996    -2.1967    -6.1404 H       
 147 H147          13.7269    -1.1176    -4.8301 H       
 148 H148          13.4675    -2.6513    -5.6956 H       
 149 H149          13.3328    -1.1045    -6.5659 H       
 150 H150           9.5819    -2.3294    -0.2210 H       
 151 H151           9.5592    -2.4520    -1.9966 H       
 152 H152           8.5623    -0.3062    -1.1332 H       
 153 H153           9.7770     1.0428    -2.6718 H       
 154 H154          11.7024    -2.9978    -1.0942 H       
 155 H155           9.0086     1.7900     2.7618 H       
 156 H156          10.5062     2.5389     3.3655 H       
 157 H157          11.8189     1.0051     1.8700 H       
 158 H158           9.4937    -0.6884     1.3666 H       
 159 H159           8.2785     2.1403     0.4749 H       
 160 H160           8.3208     3.6268    -1.4865 H       
 161 H161          11.9165     5.4252    -0.0367 H       
 162 H162          11.8615     3.9419     1.9269 H       
 163 H163           9.6772     6.2773    -1.8393 H       
 164 H164          13.6769    -0.7814     5.4921 H       
 165 H165          12.8898    -1.9382     6.5925 H       
 166 H166          10.6585    -1.0700     5.8312 H       
 167 H167          11.8678     1.2602     4.5523 H       
 168 H168          12.8424    -4.1841     2.7578 H       
 169 H169          16.3935    -5.8439     3.5530 H       
 170 H170          13.6546    -5.9922     1.4380 H       
 171 H171          15.1481    -6.6798     1.7834 H       
 172 H172          11.7069    -2.9628     4.6691 H       
 173 H173          12.4939    -1.8061     3.5688 H       
 174 H174          13.9286    -3.8350     5.3414 H       
 175 H175          14.7156    -2.6783     4.2410 H       
 176 H176           9.8709     0.2837     9.9878 H       
 177 H177          10.5770     1.7229    10.7614 H       
 178 H178          12.4845     1.6020     9.1281 H       
 179 H179          11.7513    -1.0989     8.2944 H       
 180 H180           8.5484     2.5209     9.0807 H       
 181 H181          12.0716     2.4769    11.6782 H       
 182 H182          13.7005     2.5210    10.9476 H       
 183 H183          14.7644     2.5646    13.0270 H       
 184 H184          13.1824     3.1893    13.5985 H       
 185 H185          14.6878    -0.2270    12.5990 H       
 186 H186          14.1946     0.8968    14.6680 H       
 187 H187          12.4421     1.0023    14.2912 H       
 188 H188          13.9496    -4.6980    12.8247 H       
 189 H189          12.3613    -5.3836    13.2433 H       
 190 H190          11.7231    -3.2453    14.3245 H       
 191 H191          14.4112    -2.1230    14.1187 H       
 192 H192          12.3622    -4.7038    10.5760 H       
 193 H193          11.7108    -5.2684    18.2831 H       
 194 H194          13.1559    -5.6714    19.2411 H       
 195 H195          14.5079    -5.6437    17.1237 H       
 196 H196          12.1128    -5.6613    15.4532 H       
 197 H197          13.4625    -1.2450    18.9868 H       
 198 H198          12.4360     0.9844    21.4729 H       
 199 H199          11.3988    -2.3156    21.6493 H       
 200 H200          11.3141    -0.8184    22.4069 H       
 201 H201          14.2573    -3.5941    18.4535 H       
 202 H202          12.8122    -3.1911    17.4955 H       
 203 H203          12.8970    -3.5444    20.5261 H       
 204 H204          11.4520    -3.1415    19.5682 H       
 205 H205          15.4033    -9.9528    17.7516 H       
 206 H206          14.2779   -11.2968    17.4427 H       
 207 H207          12.3636    -9.6928    17.7156 H       
 208 H208          14.0896    -7.6449    18.8795 H       
 209 H209          15.6701    -8.1595    16.1369 H       
 210 H210          15.5217    -7.4915    13.7715 H       
 211 H211          14.0997    -8.7679    12.2186 H       
 212 H212          12.8267   -10.7130    13.0308 H       
 213 H213          12.9818   -11.3861    15.3943 H       
 214 H214          11.0029   -12.0619    21.2227 H       
 215 H215          11.7388   -12.0233    22.8430 H       
 216 H216          13.8825   -11.2333    21.7977 H       
 217 H217          12.9642   -11.9184    19.1116 H       
 218 H218          10.5532   -10.0055    20.0131 H       
 219 H219          10.0743    -7.5954    20.1731 H       
 220 H220          10.7160    -6.3443    22.1945 H       
 221 H221          11.8358    -7.5033    24.0562 H       
 222 H222          12.3070    -9.9151    23.8996 H       
 223 H223          15.8443   -14.9540    23.2368 H       
 224 H224          15.6606   -16.5669    22.5065 H       
 225 H225          13.4616   -15.8269    21.5428 H       
 226 H226          13.3805   -13.4529    23.2413 H       
 227 H227          15.5330   -15.5334    20.2561 H       
 228 H228          15.7167   -13.9206    20.9864 H       
 229 H229          19.1323   -14.8637    20.0408 H       
 230 H230          11.0752   -18.6912    25.7862 H       
 231 H231          10.9454   -17.4419    24.5250 H       
 232 H232          13.0147   -17.2042    25.9299 H       
 233 H233          14.0082   -17.8333    23.2569 H       
 234 H234          10.5590   -19.6315    23.6520 H       
 235 H235          13.0580   -21.4332    28.6374 H       
 236 H236          14.6187   -22.2884    28.6000 H       
 237 H237          15.2764   -20.9008    26.6115 H       
 238 H238          14.1635   -23.2199    26.2079 H       
 239 H239          12.6977   -19.6164    27.0891 H       
 240 H240          13.1587   -18.9424    29.6100 H       
 241 H241          14.8641   -17.4516    30.7970 H       
 242 H242          16.8329   -20.8020    29.1970 H       
 243 H243          13.6429     4.8719    -4.7728 H       
 244 H244          12.4593     6.0787    -4.2150 H       
 245 H245          12.8002     4.6413    -3.2220 H       
 246 H246          10.6471     4.3997    -4.4279 H       
 247 H247          12.3564     2.4498    -5.7710 H       
 248 H248           9.5285     6.6078    -9.5052 H       
 249 H249           9.3698     5.2532    -8.3615 H       
 250 H250          11.7362     6.0634    -8.5979 H       
 251 H251          11.0238     6.6692    -5.8315 H       
 252 H252           7.7504     6.9601    -7.9497 H       
 253 H253          13.3966     9.8900   -10.1354 H       
 254 H254          13.2043    11.4827    -9.3643 H       
 255 H255          11.1325    10.6287    -8.2283 H       
 256 H256          11.0117     8.2764    -9.9545 H       
 257 H257          13.4388     8.8433    -7.8519 H       
 258 H258          15.4864    11.0580    -8.3196 H       
 259 H259          15.7150     9.6375    -7.2717 H       
 260 H260          15.5407     9.4272    -9.0306 H       
 261 H261          12.1751    10.6230    -6.6753 H       
 262 H262          13.7496    10.3358    -5.8963 H       
 263 H263          13.5210    11.7564    -6.9442 H       
 264 H264           8.2863    13.5184   -12.1767 H       
 265 H265           8.2720    12.1491   -11.0396 H       
 266 H266           8.7803    13.7619   -10.4841 H       
 267 H267          10.2461    12.0424   -12.5364 H       
 268 H268          11.1142    14.7829   -11.3567 H       
 269 H269          11.4378    12.6811    -9.9480 H       
@<TRIPOS>BOND
   1    1    6 1
   2    1    2 1
   3    1  139 1
   4    1  140 1
   5    2    4 1
   6    2    3 1
   7    2  141 1
   8    3    5 2
   9    3  118 am
  10    4   12 1
  11    4  142 1
  12    6    7 1
  13    6    8 1
  14    6  143 1
  15    7  144 1
  16    7  145 1
  17    7  146 1
  18    8  147 1
  19    8  148 1
  20    8  149 1
  21    9   14 1
  22    9   10 1
  23    9  150 1
  24    9  151 1
  25   10   12 1
  26   10   11 1
  27   10  152 1
  28   11   13 2
  29   11   18 am
  30   12  153 1
  31   14  154 1
  32   15   20 1
  33   15   16 1
  34   15  155 1
  35   15  156 1
  36   16   17 1
  37   16   18 1
  38   16  157 1
  39   17   19 2
  40   17   30 am
  41   18  158 1
  42   20   21 ar
  43   20   25 ar
  44   21   22 ar
  45   21  159 1
  46   22   23 ar
  47   22  160 1
  48   23   24 ar
  49   23   26 1
  50   24   25 ar
  51   24  161 1
  52   25  162 1
  53   26  163 1
  54   27   36 1
  55   27   28 1
  56   27  164 1
  57   27  165 1
  58   28   30 1
  59   28   29 1
  60   28  166 1
  61   29   31 2
  62   29   41 am
  63   30  167 1
  64   32   37 1
  65   32   33 1
  66   32  168 1
  67   33   34 2
  68   33   35 1
  69   34  169 1
  70   35  170 1
  71   35  171 1
  72   36   37 1
  73   36  172 1
  74   36  173 1
  75   37  174 1
  76   37  175 1
  77   38   43 1
  78   38   39 1
  79   38  176 1
  80   38  177 1
  81   39   40 1
  82   39   41 1
  83   39  178 1
  84   40   42 2
  85   40   48 am
  86   41  179 1
  87   43  180 1
  88   44   48 1
  89   44   45 1
  90   44  181 1
  91   44  182 1
  92   45   50 1
  93   45  183 1
  94   45  184 1
  95   46   48 1
  96   46   47 1
  97   46   50 1
  98   46  185 1
  99   47   49 2
 100   47   54 am
 101   50  186 1
 102   50  187 1
 103   51   56 1
 104   51   52 1
 105   51  188 1
 106   51  189 1
 107   52   53 1
 108   52   54 1
 109   52  190 1
 110   53   55 2
 111   53   60 am
 112   54  191 1
 113   56  192 1
 114   57   66 1
 115   57   58 1
 116   57  193 1
 117   57  194 1
 118   58   60 1
 119   58   59 1
 120   58  195 1
 121   59   61 2
 122   59   71 am
 123   60  196 1
 124   62   67 1
 125   62   63 1
 126   62  197 1
 127   63   64 2
 128   63   65 1
 129   64  198 1
 130   65  199 1
 131   65  200 1
 132   66   67 1
 133   66  201 1
 134   66  202 1
 135   67  203 1
 136   67  204 1
 137   68   73 1
 138   68   69 1
 139   68  205 1
 140   68  206 1
 141   69   70 1
 142   69   71 1
 143   69  207 1
 144   70   72 2
 145   70   82 am
 146   71  208 1
 147   73   74 ar
 148   73   78 ar
 149   74   75 ar
 150   74  209 1
 151   75   76 ar
 152   75  210 1
 153   76   77 ar
 154   76  211 1
 155   77   78 ar
 156   77  212 1
 157   78  213 1
 158   79   84 1
 159   79   80 1
 160   79  214 1
 161   79  215 1
 162   80   81 1
 163   80   82 1
 164   80  216 1
 165   81   83 2
 166   81   93 am
 167   82  217 1
 168   84   85 ar
 169   84   89 ar
 170   85   86 ar
 171   85  218 1
 172   86   87 ar
 173   86  219 1
 174   87   88 ar
 175   87  220 1
 176   88   89 ar
 177   88  221 1
 178   89  222 1
 179   90   95 1
 180   90   91 1
 181   90  223 1
 182   90  224 1
 183   91   93 1
 184   91   92 1
 185   91  225 1
 186   92   94 2
 187   92  102 am
 188   93  226 1
 189   95   96 1
 190   95  227 1
 191   95  228 1
 192   96   97 2
 193   96   98 1
 194   98  229 1
 195   99  104 1
 196   99  100 1
 197   99  230 1
 198   99  231 1
 199  100  102 1
 200  100  101 1
 201  100  232 1
 202  101  103 2
 203  101  108 am
 204  102  233 1
 205  104  234 1
 206  105  110 1
 207  105  106 1
 208  105  235 1
 209  105  236 1
 210  106  107 1
 211  106  108 1
 212  106  237 1
 213  107  109 2
 214  107  238 1
 215  108  239 1
 216  110  111 1
 217  110  114 2
 218  111  112 1
 219  111  240 1
 220  112  113 2
 221  112  241 1
 222  113  114 1
 223  114  242 1
 224  115  116 1
 225  115  243 1
 226  115  244 1
 227  115  245 1
 228  116  117 1
 229  116  118 1
 230  116  246 1
 231  117  119 2
 232  117  123 am
 233  118  247 1
 234  120  125 1
 235  120  121 1
 236  120  248 1
 237  120  249 1
 238  121  123 1
 239  121  122 1
 240  121  250 1
 241  122  124 2
 242  122  129 am
 243  123  251 1
 244  125  252 1
 245  126  131 1
 246  126  127 1
 247  126  253 1
 248  126  254 1
 249  127  129 1
 250  127  128 1
 251  127  255 1
 252  128  130 2
 253  128  137 am
 254  129  256 1
 255  131  132 1
 256  131  133 1
 257  131  257 1
 258  132  258 1
 259  132  259 1
 260  132  260 1
 261  133  261 1
 262  133  262 1
 263  133  263 1
 264  134  135 1
 265  134  264 1
 266  134  265 1
 267  134  266 1
 268  135  136 1
 269  135  137 1
 270  135  267 1
 271  136  138 2
 272  136  268 1
 273  137  269 1

#	End of record

