#	Name: ASD01883025
#	Creating user name:	WinNT
#	Creation time:	15. 06. 2019 19:45

#	Modifying user name:	WinNT
#	Modification time:	15. 06. 2019 19:45

#	Program:	/corina/corina34_cracker 3.40 0067  02.08.2006

@<TRIPOS>MOLECULE
ASD01883025
  54   56    0    0    0
SMALL
NO_CHARGES


@<TRIPOS>ATOM
   1 N1            -0.0162     1.3417     0.0094 N.am    
   2 C2             0.0021    -0.0041     0.0020 C.2     
   3 C3            -1.2159    -0.7274     0.0102 C.2     
   4 C4            -2.4262    -0.0109     0.0261 C.2     
   5 C5            -2.3786     1.3974     0.0332 C.2     
   6 C6            -1.1852     2.0327     0.0299 C.2     
   7 O7             1.0657    -0.6000    -0.0122 O.2     
   8 C8            -1.2149    -2.1593     0.0021 C.1     
   9 N9            -1.2141    -3.2953    -0.0044 N.1     
  10 C10            1.2513     2.0763     0.0013 C.3     
  11 C11            1.6788     2.3398    -1.4440 C.3     
  12 C12           -5.7778    -1.2769     1.1453 C.ar    
  13 C13           -4.5703    -0.6151     1.1397 C.ar    
  14 C14           -3.7215    -0.7207     0.0347 C.ar    
  15 C15           -4.1007    -1.4988    -1.0626 C.ar    
  16 C16           -5.3104    -2.1595    -1.0514 C.ar    
  17 C17           -6.1540    -2.0510     0.0525 C.ar    
  18 N18           -7.3765    -2.7197     0.0618 N.pl3   
  19 C19           -8.8479    -3.5733     3.4475 C.3     
  20 O20          -10.1769    -3.7907     2.9694 O.3     
  21 C21          -10.6203    -2.8217     2.0173 C.3     
  22 C22           -9.7105    -2.8640     0.7868 C.3     
  23 C23           -8.2644    -2.6067     1.2216 C.3     
  24 C24           -7.8669    -3.6458     2.2745 C.3     
  25 C25            3.0025     3.1070    -1.4525 C.3     
  26 C26            3.4930     3.2617    -2.8935 C.3     
  27 C27            2.7941     4.4905    -0.8334 C.3     
  28 F28           -5.6786    -2.9121    -2.1112 F       
  29 H29           -3.2949     1.9690     0.0454 H       
  30 H30           -1.1610     3.1124     0.0358 H       
  31 H31            1.1243     3.0257     0.5214 H       
  32 H32            2.0168     1.4857     0.5046 H       
  33 H33            1.8057     1.3903    -1.9642 H       
  34 H34            0.9133     2.9303    -1.9474 H       
  35 H35           -6.4316    -1.1987     2.0014 H       
  36 H36           -4.2796    -0.0141     1.9887 H       
  37 H37           -3.4470    -1.5821    -1.9183 H       
  38 H38           -7.6396    -3.2601    -0.6996 H       
  39 H39           -8.7855    -2.5898     3.9133 H       
  40 H40           -8.5954    -4.3395     4.1805 H       
  41 H41          -11.6446    -3.0465     1.7200 H       
  42 H42          -10.5811    -1.8284     2.4644 H       
  43 H43           -9.7803    -3.8445     0.3157 H       
  44 H44          -10.0200    -2.0957     0.0783 H       
  45 H45           -8.1842    -1.6067     1.6477 H       
  46 H46           -6.8579    -3.4365     2.6299 H       
  47 H47           -7.8994    -4.6421     1.8335 H       
  48 H48            3.7445     2.5577    -0.8731 H       
  49 H49            2.7510     3.8109    -3.4729 H       
  50 H50            4.4361     3.8082    -2.8995 H       
  51 H51            3.6415     2.2760    -3.3345 H       
  52 H52            2.4446     4.3803     0.1931 H       
  53 H53            3.7371     5.0371    -0.8395 H       
  54 H54            2.0520     5.0398    -1.4129 H       
@<TRIPOS>BOND
   1    1    2 am
   2    1   10 1
   3    1    6 1
   4    2    3 1
   5    2    7 2
   6    3    4 2
   7    3    8 1
   8    4    5 1
   9    4   14 1
  10    5    6 2
  11    5   29 1
  12    6   30 1
  13    8    9 3
  14   10   11 1
  15   10   31 1
  16   10   32 1
  17   11   25 1
  18   11   33 1
  19   11   34 1
  20   12   13 ar
  21   12   17 ar
  22   12   35 1
  23   13   14 ar
  24   13   36 1
  25   14   15 ar
  26   15   16 ar
  27   15   37 1
  28   16   17 ar
  29   16   28 1
  30   17   18 1
  31   18   23 1
  32   18   38 1
  33   19   20 1
  34   19   24 1
  35   19   39 1
  36   19   40 1
  37   20   21 1
  38   21   22 1
  39   21   41 1
  40   21   42 1
  41   22   23 1
  42   22   43 1
  43   22   44 1
  44   23   24 1
  45   23   45 1
  46   24   46 1
  47   24   47 1
  48   25   26 1
  49   25   27 1
  50   25   48 1
  51   26   49 1
  52   26   50 1
  53   26   51 1
  54   27   52 1
  55   27   53 1
  56   27   54 1

#	End of record

