#	Name: ASD01883026
#	Creating user name:	WinNT
#	Creation time:	15. 06. 2019 19:45

#	Modifying user name:	WinNT
#	Modification time:	15. 06. 2019 19:45

#	Program:	/corina/corina34_cracker 3.40 0067  02.08.2006

@<TRIPOS>MOLECULE
ASD01883026
  54   56    0    0    0
SMALL
NO_CHARGES


@<TRIPOS>ATOM
   1 N1            -0.0162     1.3417     0.0094 N.am    
   2 C2             0.0021    -0.0041     0.0020 C.2     
   3 C3            -1.2159    -0.7274     0.0098 C.2     
   4 C4            -2.4262    -0.0109     0.0252 C.2     
   5 C5            -2.3786     1.3974     0.0323 C.2     
   6 C6            -1.1851     2.0327     0.0299 C.2     
   7 O7             1.0657    -0.6000    -0.0117 O.2     
   8 C8            -1.2149    -2.1593     0.0016 C.1     
   9 N9            -1.2141    -3.2953    -0.0049 N.1     
  10 C10            1.2513     2.0763     0.0013 C.3     
  11 C11            1.6788     2.3398    -1.4440 C.3     
  12 C12           -5.7778    -1.2773     1.1429 C.ar    
  13 C13           -4.5709    -0.6151     1.1381 C.ar    
  14 C14           -3.7215    -0.7207     0.0332 C.ar    
  15 C15           -4.1003    -1.4987    -1.0640 C.ar    
  16 C16           -5.3093    -2.1591    -1.0535 C.ar    
  17 C17           -6.1532    -2.0512     0.0490 C.ar    
  18 N18           -7.3751    -2.7194     0.0570 N.pl3   
  19 C19           -8.8494    -3.5744     3.4411 C.3     
  20 O20          -10.1781    -3.7915     2.9618 O.3     
  21 C21          -10.6206    -2.8220     2.0097 C.3     
  22 C22           -9.7097    -2.8638     0.7800 C.3     
  23 C23           -8.2640    -2.6068     1.2161 C.3     
  24 C24           -7.8674    -3.6464     2.2688 C.3     
  25 C25            3.0025     3.1070    -1.4525 C.3     
  26 C26            4.1050     2.2284    -0.8581 C.3     
  27 C27            3.3670     3.4792    -2.8911 C.3     
  28 Cl28          -5.7814    -3.1261    -2.4158 Cl      
  29 H29           -3.2949     1.9690     0.0441 H       
  30 H30           -1.1610     3.1124     0.0358 H       
  31 H31            1.1243     3.0257     0.5214 H       
  32 H32            2.0168     1.4857     0.5046 H       
  33 H33            1.8057     1.3903    -1.9642 H       
  34 H34            0.9133     2.9303    -1.9474 H       
  35 H35           -6.4323    -1.1994     1.9985 H       
  36 H36           -4.2806    -0.0145     1.9874 H       
  37 H37           -3.4462    -1.5820    -1.9194 H       
  38 H38           -7.6376    -3.2593    -0.7049 H       
  39 H39           -8.7873    -2.5912     3.9074 H       
  40 H40           -8.5976    -4.3410     4.1739 H       
  41 H41          -11.6446    -3.0465     1.7114 H       
  42 H42          -10.5816    -1.8289     2.4573 H       
  43 H43           -9.7792    -3.8441     0.3084 H       
  44 H44          -10.0186    -2.0951     0.0716 H       
  45 H45           -8.1841    -1.6070     1.6428 H       
  46 H46           -6.8588    -3.4375     2.6252 H       
  47 H47           -7.8997    -4.6425     1.8273 H       
  48 H48            2.9004     4.0143    -0.8572 H       
  49 H49            3.8454     1.9632     0.1668 H       
  50 H50            4.2071     1.3210    -1.4534 H       
  51 H51            5.0481     2.7749    -0.8642 H       
  52 H52            2.5815     4.1051    -3.3146 H       
  53 H53            4.3100     4.0258    -2.8972 H       
  54 H54            3.4691     2.5719    -3.4864 H       
@<TRIPOS>BOND
   1    1    2 am
   2    1   10 1
   3    1    6 1
   4    2    3 1
   5    2    7 2
   6    3    4 2
   7    3    8 1
   8    4    5 1
   9    4   14 1
  10    5    6 2
  11    5   29 1
  12    6   30 1
  13    8    9 3
  14   10   11 1
  15   10   31 1
  16   10   32 1
  17   11   25 1
  18   11   33 1
  19   11   34 1
  20   12   13 ar
  21   12   17 ar
  22   12   35 1
  23   13   14 ar
  24   13   36 1
  25   14   15 ar
  26   15   16 ar
  27   15   37 1
  28   16   17 ar
  29   16   28 1
  30   17   18 1
  31   18   23 1
  32   18   38 1
  33   19   20 1
  34   19   24 1
  35   19   39 1
  36   19   40 1
  37   20   21 1
  38   21   22 1
  39   21   41 1
  40   21   42 1
  41   22   23 1
  42   22   43 1
  43   22   44 1
  44   23   24 1
  45   23   45 1
  46   24   46 1
  47   24   47 1
  48   25   26 1
  49   25   27 1
  50   25   48 1
  51   26   49 1
  52   26   50 1
  53   26   51 1
  54   27   52 1
  55   27   53 1
  56   27   54 1

#	End of record

