#	Name: ASD05720101
#	Creating user name:	WinNT
#	Creation time:	15. 06. 2019 21:01

#	Modifying user name:	WinNT
#	Modification time:	15. 06. 2019 21:01

#	Program:	/corina/corina34_cracker 3.40 0067  02.08.2006

@<TRIPOS>MOLECULE
ASD05720101
  23   24    0    0    0
SMALL
NO_CHARGES


@<TRIPOS>ATOM
   1 O1            -0.0161     1.3335     0.0094 O.3     
   2 C2             0.0021    -0.0041     0.0020 C.2     
   3 N3             1.2348    -0.5293    -0.0126 N.am    
   4 C4             2.2183     0.5645    -0.0161 C.3     
   5 C5             1.3508     1.8380    -0.0010 C.3     
   6 O6            -1.0070    -0.6809     0.0087 O.2     
   7 C7             2.5427     0.1494     2.4362 C.ar    
   8 C8             3.0858     0.5003     1.2145 C.ar    
   9 C9             4.4387     0.7920     1.1355 C.ar    
  10 C10            5.1982     0.7195     2.2934 C.ar    
  11 C11            4.5857     0.3615     3.4792 C.ar    
  12 N12            3.2954     0.0911     3.5172 N.ar    
  13 C13            5.4013     0.2795     4.7437 C.3     
  14 H14            1.4444    -1.4764    -0.0197 H       
  15 H15            2.8286     0.5277    -0.9184 H       
  16 H16            1.5314     2.4340    -0.8956 H       
  17 H17            1.5485     2.4243     0.8964 H       
  18 H18            1.4886    -0.0750     2.5070 H       
  19 H19            4.8906     1.0688     0.1944 H       
  20 H20            6.2553     0.9398     2.2688 H       
  21 H21            5.3962     1.2485     5.2429 H       
  22 H22            4.9713    -0.4723     5.4054 H       
  23 H23            6.4266     0.0031     4.4975 H       
@<TRIPOS>BOND
   1    1    2 1
   2    1    5 1
   3    2    3 am
   4    2    6 2
   5    3    4 1
   6    3   14 1
   7    4    5 1
   8    4    8 1
   9    4   15 1
  10    5   16 1
  11    5   17 1
  12    7    8 ar
  13    7   12 ar
  14    7   18 1
  15    8    9 ar
  16    9   10 ar
  17    9   19 1
  18   10   11 ar
  19   10   20 1
  20   11   12 ar
  21   11   13 1
  22   13   21 1
  23   13   22 1
  24   13   23 1

#	End of record

