#	Name: ASD03330092
#	Creating user name:	WinNT
#	Creation time:	15. 06. 2019 20:36

#	Modifying user name:	WinNT
#	Modification time:	15. 06. 2019 20:36

#	Program:	/corina/corina34_cracker 3.40 0067  02.08.2006

@<TRIPOS>MOLECULE
ASD03330092
  75   79    0    0    0
SMALL
NO_CHARGES


@<TRIPOS>ATOM
   1 C1             1.6984     0.3594    -1.0577 C.2     
   2 C2             1.3233    -0.7111    -0.3030 C.2     
   3 C3             3.0474     0.6460    -1.0216 C.2     
   4 C4             3.7851    -0.2017    -0.2266 C.2     
   5 S5             2.7262    -1.4030     0.4986 S.3     
   6 C6             5.2430    -0.1157    -0.0161 C.ar    
   7 C7             5.7683    -0.1433     1.2795 C.ar    
   8 C8             6.1048    -0.0124    -1.1103 C.ar    
   9 C9             7.4666     0.0671    -0.9069 C.ar    
  10 C10            7.9808     0.0442     0.3788 C.ar    
  11 C11            7.1330    -0.0630     1.4687 C.ar    
  12 C12            3.6511     1.7705    -1.7754 C.ar    
  13 C13            3.4496     1.8793    -3.1507 C.ar    
  14 C14            4.4180     2.7266    -1.1110 C.ar    
  15 C15            4.9776     3.7713    -1.8180 C.ar    
  16 C16            4.7789     3.8708    -3.1834 C.ar    
  17 C17            4.0142     2.9283    -3.8471 C.ar    
  18 C18           -0.0482    -1.2117    -0.1775 C.2     
  19 O19           -0.9722    -0.4298    -0.0499 O.2     
  20 N20           -0.2864    -2.5380    -0.2035 N.am    
  21 C21           -1.6627    -3.0519    -0.1817 C.3     
  22 C22            0.8250    -3.4973    -0.2604 C.3     
  23 C23            0.6014    -4.4412    -1.4461 C.3     
  24 C24           -0.7807    -5.0871    -1.3252 C.3     
  25 C25           -1.8533    -4.0018    -1.3684 C.3     
  26 C26           -0.9905    -6.0422    -2.4718 C.ar    
  27 Cl27           4.7066    -0.2776     2.6464 Cl      
  28 C28           -0.8711    -5.8394    -0.0225 C.2     
  29 N29            0.0738    -6.7448     0.2998 N.am    
  30 O30           -1.7942    -5.6300     0.7358 O.2     
  31 S31            5.4966     5.2075    -4.0794 S.o2    
  32 C32            7.1236     4.5885    -4.5897 C.3     
  33 C33            7.8544     5.6713    -5.3861 C.3     
  34 C34            9.2267     5.1492    -5.8165 C.3     
  35 Cl35           9.6963     0.1436     0.6252 Cl      
  36 C36           -2.2042    -6.6869    -2.6211 C.ar    
  37 C37           -2.3967    -7.5631    -3.6728 C.ar    
  38 C38           -1.3756    -7.7942    -4.5756 C.ar    
  39 C39           -0.1623    -7.1489    -4.4268 C.ar    
  40 C40            0.0288    -6.2694    -3.3775 C.ar    
  41 O41            4.6481     5.3686    -5.2078 O.2     
  42 O42            5.6366     6.2412    -3.1145 O.2     
  43 C43            9.9575     6.2321    -6.6129 C.3     
  44 H44            0.9958     0.9354    -1.6417 H       
  45 H45            5.7057     0.0050    -2.1137 H       
  46 H46            8.1337     0.1471    -1.7525 H       
  47 H47            7.5404    -0.0803     2.4687 H       
  48 H48            2.8531     1.1438    -3.6699 H       
  49 H49            4.5734     2.6501    -0.0449 H       
  50 H50            5.5715     4.5127    -1.3043 H       
  51 H51            3.8625     3.0111    -4.9132 H       
  52 H52           -1.8367    -3.5911     0.7495 H       
  53 H53           -2.3642    -2.2215    -0.2620 H       
  54 H54            1.7645    -2.9606    -0.3927 H       
  55 H55            0.8580    -4.0735     0.6642 H       
  56 H56            0.6590    -3.8765    -2.3766 H       
  57 H57            1.3671    -5.2170    -1.4429 H       
  58 H58           -2.8393    -4.4621    -1.3059 H       
  59 H59           -1.7697    -3.4447    -2.3015 H       
  60 H60            0.8475    -6.8632    -0.2730 H       
  61 H61           -0.0200    -7.2780     1.1047 H       
  62 H62            7.7077     4.3307    -3.7063 H       
  63 H63            6.9965     3.7029    -5.2124 H       
  64 H64            7.2703     5.9291    -6.2696 H       
  65 H65            7.9815     6.5569    -4.7635 H       
  66 H66            9.8107     4.8914    -4.9331 H       
  67 H67            9.0995     4.2637    -6.4392 H       
  68 H68           -3.0020    -6.5063    -1.9158 H       
  69 H69           -3.3447    -8.0673    -3.7891 H       
  70 H70           -1.5258    -8.4793    -5.3969 H       
  71 H71            0.6356    -7.3297    -5.1319 H       
  72 H72            0.9767    -5.7652    -3.2613 H       
  73 H73            9.3734     6.4899    -7.4964 H       
  74 H74           10.0846     7.1176    -5.9903 H       
  75 H75           10.9351     5.8601    -6.9195 H       
@<TRIPOS>BOND
   1    1    2 2
   2    1    3 1
   3    1   44 1
   4    2   18 1
   5    2    5 1
   6    3    4 2
   7    3   12 1
   8    4    5 1
   9    4    6 1
  10    6    7 ar
  11    6    8 ar
  12    7   27 1
  13    7   11 ar
  14    8    9 ar
  15    8   45 1
  16    9   10 ar
  17    9   46 1
  18   10   11 ar
  19   10   35 1
  20   11   47 1
  21   12   13 ar
  22   12   14 ar
  23   13   17 ar
  24   13   48 1
  25   14   15 ar
  26   14   49 1
  27   15   16 ar
  28   15   50 1
  29   16   17 ar
  30   16   31 1
  31   17   51 1
  32   18   19 2
  33   18   20 am
  34   20   21 1
  35   20   22 1
  36   21   25 1
  37   21   52 1
  38   21   53 1
  39   22   23 1
  40   22   54 1
  41   22   55 1
  42   23   24 1
  43   23   56 1
  44   23   57 1
  45   24   25 1
  46   24   26 1
  47   24   28 1
  48   25   58 1
  49   25   59 1
  50   26   36 ar
  51   26   40 ar
  52   28   29 am
  53   28   30 2
  54   29   60 1
  55   29   61 1
  56   31   32 1
  57   31   41 2
  58   31   42 2
  59   32   33 1
  60   32   62 1
  61   32   63 1
  62   33   34 1
  63   33   64 1
  64   33   65 1
  65   34   43 1
  66   34   66 1
  67   34   67 1
  68   36   37 ar
  69   36   68 1
  70   37   38 ar
  71   37   69 1
  72   38   39 ar
  73   38   70 1
  74   39   40 ar
  75   39   71 1
  76   40   72 1
  77   43   73 1
  78   43   74 1
  79   43   75 1

#	End of record

