#	Name: ASD01180176
#	Creating user name:	WinNT
#	Creation time:	15. 06. 2019 19:06

#	Modifying user name:	WinNT
#	Modification time:	15. 06. 2019 19:06

#	Program:	/corina/corina34_cracker 3.40 0067  02.08.2006

@<TRIPOS>MOLECULE
ASD01180176
  60   62    0    0    0
SMALL
NO_CHARGES


@<TRIPOS>ATOM
   1 C1             0.4946     1.4252     0.4883 C.ar    
   2 C2             0.4240     0.0494     0.4033 C.ar    
   3 C3             1.5942    -0.7013     0.3118 C.ar    
   4 C4             2.8301    -0.0579     0.3065 C.ar    
   5 C5             2.8890     1.3184     0.3919 C.ar    
   6 C6             1.7241     2.0588     0.4827 C.ar    
   7 C7             1.7949     3.5612     0.5756 C.3     
   8 F8             1.7675     4.1099    -0.7110 F       
   9 F9             0.7011     4.0351     1.3080 F       
  10 F10            2.9816     3.9335     1.2162 F       
  11 C11            1.5246    -2.1808     0.2207 C.ar    
  12 C12            2.6949    -2.9316     0.1292 C.ar    
  13 C13            2.6243    -4.3074     0.0447 C.ar    
  14 C14            1.3947    -4.9410     0.0503 C.ar    
  15 C15            0.2299    -4.2006     0.1410 C.ar    
  16 C16            0.2890    -2.8247     0.2322 C.ar    
  17 C17            1.3240    -6.4434    -0.0433 C.3     
  18 C18            1.1032    -7.0314     1.3519 C.3     
  19 N19            0.2117    -6.8265    -0.9163 N.pl3   
  20 C20            1.1632    -8.5584     1.2771 C.3     
  21 C21            1.0669    -9.1423     2.6880 C.3     
  22 C22            0.3793    -6.8286    -2.2901 C.ar    
  23 N23           -0.6542    -7.0807    -3.0845 N.ar    
  24 C24           -0.4941    -7.0827    -4.3952 C.ar    
  25 C25            0.7600    -6.8199    -4.9444 C.ar    
  26 N26            1.7971    -6.5669    -4.1464 N.ar    
  27 C27            1.6363    -6.5594    -2.8418 C.ar    
  28 C28            0.9397    -6.8225    -6.4116 C.2     
  29 N29            2.1522    -6.5685    -6.9425 N.am    
  30 O30           -0.0062    -7.0537    -7.1394 O.2     
  31 C31            2.3302    -6.5710    -8.3967 C.3     
  32 C32            3.7894    -6.2566    -8.7323 C.3     
  33 C33            3.9726    -6.2592   -10.2281 C.2     
  34 O34            5.1802    -6.0062   -10.7569 O.3     
  35 O35            3.0325    -6.4890   -10.9515 O.2     
  36 H36           -0.4120     2.0083     0.5547 H       
  37 H37           -0.5365    -0.4443     0.4082 H       
  38 H38            3.7402    -0.6350     0.2361 H       
  39 H39            3.8464     1.8182     0.3879 H       
  40 H40            3.6554    -2.4378     0.1240 H       
  41 H41            3.5307    -4.8902    -0.0263 H       
  42 H42           -0.7275    -4.7004     0.1449 H       
  43 H43           -0.6211    -2.2476     0.3029 H       
  44 H44            2.2577    -6.8262    -0.4553 H       
  45 H45            1.8800    -6.6698     2.0257 H       
  46 H46            0.1264    -6.7240     1.7253 H       
  47 H47           -0.6423    -7.0787    -0.5315 H       
  48 H48            0.3325    -8.9256     0.6744 H       
  49 H49            2.1053    -8.8631     0.8213 H       
  50 H50            1.1096   -10.2302     2.6347 H       
  51 H51            1.8976    -8.7751     3.2907 H       
  52 H52            0.1248    -8.8376     3.1438 H       
  53 H53           -1.3345    -7.2881    -5.0417 H       
  54 H54            2.4768    -6.3539    -2.1954 H       
  55 H55            2.9069    -6.3840    -6.3618 H       
  56 H56            2.0696    -7.5525    -8.7929 H       
  57 H57            1.6837    -5.8156    -8.8432 H       
  58 H58            4.0500    -5.2751    -8.3361 H       
  59 H59            4.4359    -7.0120    -8.2858 H       
  60 H60            5.2485    -6.0189   -11.7214 H       
@<TRIPOS>BOND
   1    1    2 ar
   2    1    6 ar
   3    1   36 1
   4    2    3 ar
   5    2   37 1
   6    3    4 ar
   7    3   11 1
   8    4    5 ar
   9    4   38 1
  10    5    6 ar
  11    5   39 1
  12    6    7 1
  13    7    8 1
  14    7    9 1
  15    7   10 1
  16   11   12 ar
  17   11   16 ar
  18   12   13 ar
  19   12   40 1
  20   13   14 ar
  21   13   41 1
  22   14   15 ar
  23   14   17 1
  24   15   16 ar
  25   15   42 1
  26   16   43 1
  27   17   18 1
  28   17   19 1
  29   17   44 1
  30   18   20 1
  31   18   45 1
  32   18   46 1
  33   19   22 1
  34   19   47 1
  35   20   21 1
  36   20   48 1
  37   20   49 1
  38   21   50 1
  39   21   51 1
  40   21   52 1
  41   22   23 ar
  42   22   27 ar
  43   23   24 ar
  44   24   25 ar
  45   24   53 1
  46   25   26 ar
  47   25   28 1
  48   26   27 ar
  49   27   54 1
  50   28   29 am
  51   28   30 2
  52   29   31 1
  53   29   55 1
  54   31   32 1
  55   31   56 1
  56   31   57 1
  57   32   33 1
  58   32   58 1
  59   32   59 1
  60   33   34 1
  61   33   35 2
  62   34   60 1

#	End of record

