#	Name: ASD01901523
#	Creating user name:	WinNT
#	Creation time:	15. 06. 2019 19:53

#	Modifying user name:	WinNT
#	Modification time:	15. 06. 2019 19:53

#	Program:	/corina/corina34_cracker 3.40 0067  02.08.2006

@<TRIPOS>MOLECULE
ASD01901523
  47   51    0    0    0
SMALL
NO_CHARGES


@<TRIPOS>ATOM
   1 F1             0.0021    -0.0041     0.0020 F       
   2 C2            -0.0162     1.3468     0.0094 C.ar    
   3 C3            -1.2209     2.0196     0.0303 C.ar    
   4 C4            -1.2389     3.4173     0.0380 C.ar    
   5 C5            -0.0356     4.1285     0.0245 C.ar    
   6 C6             1.1653     3.4491     0.0036 C.ar    
   7 F7             2.3288     4.1357    -0.0094 F       
   8 C8             1.1795     2.0579     0.0018 C.ar    
   9 N9             2.4019     1.3708    -0.0135 N.am    
  10 C10            3.0718     0.9881     1.0955 C.2     
  11 O11            2.7154     1.1132     2.2476 O.2     
  12 C12            4.3577     0.3712     0.5985 C.3     
  13 C13            4.5134    -1.0717     1.0879 C.3     
  14 C14            5.7287    -1.6985     0.4047 C.3     
  15 C15            5.7053    -1.5069    -1.0869 C.ar    
  16 C16            6.4767    -2.3316    -1.8877 C.ar    
  17 C17            6.4793    -2.1691    -3.2597 C.ar    
  18 C18            5.7128    -1.1804    -3.8483 C.ar    
  19 C19            4.9359    -0.3528    -3.0594 C.ar    
  20 C20            4.9289    -0.5186    -1.6849 C.ar    
  21 N21            4.1361     0.2839    -0.8639 N.am    
  22 C22            3.0489     1.0066    -1.1323 C.2     
  23 O23            2.6882     1.3026    -2.2546 O.2     
  24 C24           -2.4871     4.1189     0.0591 C.1     
  25 C25           -3.5104     4.6940     0.0765 C.1     
  26 C26           -4.7585     5.3956     0.0976 C.ar    
  27 C27           -5.9625     4.6863     0.1165 C.ar    
  28 C28           -7.1607     5.3689     0.1367 C.ar    
  29 C29           -7.1728     6.7526     0.1380 C.ar    
  30 C30           -5.9846     7.4618     0.1190 C.ar    
  31 C31           -4.7785     6.7929     0.1053 C.ar    
  32 H32           -2.1487     1.4669     0.0403 H       
  33 H33           -0.0458     5.2084     0.0300 H       
  34 H34            5.2240     0.9852     0.8447 H       
  35 H35            4.6588    -1.0770     2.1681 H       
  36 H36            3.6188    -1.6411     0.8356 H       
  37 H37            6.6339    -1.2424     0.8055 H       
  38 H38            5.7459    -2.7661     0.6237 H       
  39 H39            7.0799    -3.1061    -1.4375 H       
  40 H40            7.0840    -2.8179    -3.8759 H       
  41 H41            5.7213    -1.0548    -4.9210 H       
  42 H42            4.3359     0.4215    -3.5141 H       
  43 H43           -5.9546     3.6063     0.1148 H       
  44 H44           -8.0919     4.8221     0.1513 H       
  45 H45           -8.1141     7.2818     0.1536 H       
  46 H46           -6.0017     8.5416     0.1194 H       
  47 H47           -3.8519     7.3477     0.0957 H       
@<TRIPOS>BOND
   1    1    2 1
   2    2    8 ar
   3    2    3 ar
   4    3    4 ar
   5    3   32 1
   6    4    5 ar
   7    4   24 1
   8    5    6 ar
   9    5   33 1
  10    6    7 1
  11    6    8 ar
  12    8    9 1
  13    9   22 am
  14    9   10 am
  15   10   11 2
  16   10   12 1
  17   12   21 1
  18   12   13 1
  19   12   34 1
  20   13   14 1
  21   13   35 1
  22   13   36 1
  23   14   15 1
  24   14   37 1
  25   14   38 1
  26   15   20 ar
  27   15   16 ar
  28   16   17 ar
  29   16   39 1
  30   17   18 ar
  31   17   40 1
  32   18   19 ar
  33   18   41 1
  34   19   20 ar
  35   19   42 1
  36   20   21 1
  37   21   22 am
  38   22   23 2
  39   24   25 3
  40   25   26 1
  41   26   31 ar
  42   26   27 ar
  43   27   28 ar
  44   27   43 1
  45   28   29 ar
  46   28   44 1
  47   29   30 ar
  48   29   45 1
  49   30   31 ar
  50   30   46 1
  51   31   47 1

#	End of record

