#	Name: ASD01870270
#	Creating user name:	WinNT
#	Creation time:	15. 06. 2019 19:38

#	Modifying user name:	WinNT
#	Modification time:	15. 06. 2019 19:38

#	Program:	/corina/corina34_cracker 3.40 0067  02.08.2006

@<TRIPOS>MOLECULE
ASD01870270
  36   38    0    0    0
SMALL
NO_CHARGES


@<TRIPOS>ATOM
   1 C1             1.1322     0.5931    -0.4861 C.ar    
   2 N2             1.4534    -0.6855    -0.5171 N.ar    
   3 C3             2.7056    -1.0884    -0.4237 C.ar    
   4 C4             3.7339    -0.1750    -0.2884 C.ar    
   5 C5             3.4349     1.1784    -0.2519 C.ar    
   6 C6             2.1069     1.5638    -0.3533 C.ar    
   7 C7             4.5273     2.2061    -0.1050 C.3     
   8 N8             4.2565     3.3158    -0.9914 N.2     
   9 C9             4.5919     2.6669     1.3597 C.3     
  10 S10            4.2820     4.4590     1.2477 S.3     
  11 C11            4.1060     4.4960    -0.5107 C.2     
  12 N12            3.8449     5.6284    -1.2573 N.am    
  13 C13            3.7202     5.5328    -2.7138 C.3     
  14 C14            3.7049     6.8212    -0.6458 C.2     
  15 C15            3.5271     8.0474    -1.4504 C.ar    
  16 O16            3.7249     6.8881     0.5676 O.2     
  17 C17            2.8188     8.0004    -2.6528 C.ar    
  18 C18            4.0619     9.2594    -1.0088 C.ar    
  19 C19            3.8925    10.4005    -1.7644 C.ar    
  20 C20            3.1936    10.3463    -2.9586 C.ar    
  21 C21            2.6563     9.1484    -3.3994 C.ar    
  22 Br22           2.9650    11.9160    -3.9879 Br      
  23 H23            0.0959     0.8852    -0.5699 H       
  24 H24            2.9301    -2.1444    -0.4530 H       
  25 H25            4.7574    -0.5111    -0.2117 H       
  26 H26            1.8376     2.6094    -0.3289 H       
  27 H27            5.4809     1.7553    -0.3801 H       
  28 H28            3.8171     2.1788     1.9509 H       
  29 H29            5.5782     2.4728     1.7809 H       
  30 H30            2.6752     5.3731    -2.9793 H       
  31 H31            4.0739     6.4573    -3.1702 H       
  32 H32            4.3189     4.6968    -3.0757 H       
  33 H33            2.3993     7.0668    -2.9976 H       
  34 H34            4.6066     9.3031    -0.0772 H       
  35 H35            4.3056    11.3385    -1.4239 H       
  36 H36            2.1087     9.1133    -4.3296 H       
@<TRIPOS>BOND
   1    1    2 ar
   2    1    6 ar
   3    1   23 1
   4    2    3 ar
   5    3    4 ar
   6    3   24 1
   7    4    5 ar
   8    4   25 1
   9    5    6 ar
  10    5    7 1
  11    6   26 1
  12    7    9 1
  13    7    8 1
  14    7   27 1
  15    8   11 2
  16    9   10 1
  17    9   28 1
  18    9   29 1
  19   10   11 1
  20   11   12 1
  21   12   13 1
  22   12   14 am
  23   13   30 1
  24   13   31 1
  25   13   32 1
  26   14   15 1
  27   14   16 2
  28   15   18 ar
  29   15   17 ar
  30   17   21 ar
  31   17   33 1
  32   18   19 ar
  33   18   34 1
  34   19   20 ar
  35   19   35 1
  36   20   21 ar
  37   20   22 1
  38   21   36 1

#	End of record

