#	Name: ASD06170410
#	Creating user name:	WinNT
#	Creation time:	15. 06. 2019 21:05

#	Modifying user name:	WinNT
#	Modification time:	15. 06. 2019 21:05

#	Program:	/corina/corina34_cracker 3.40 0067  02.08.2006

@<TRIPOS>MOLECULE
ASD06170410
  33   35    0    0    0
SMALL
NO_CHARGES


@<TRIPOS>ATOM
   1 C1            -0.0179     1.4659     0.0101 C.ar    
   2 C2             0.0021    -0.0041     0.0020 C.2     
   3 C3            -1.2926    -0.7753     0.0102 C.3     
   4 C4            -0.9927    -2.2755    -0.0007 C.3     
   5 C5            -0.2124    -2.6694     1.2354 C.2     
   6 C6            -2.2728    -3.0722     0.1034 C.ar    
   7 C7            -2.1787    -3.8119     1.2752 C.ar    
   8 O8             0.8846    -2.2626     1.5550 O.2     
   9 O9             1.0604    -0.5961    -0.0113 O.2     
  10 C10           -3.3879    -3.1612    -0.6992 C.ar    
  11 C11           -4.4323    -3.9964    -0.3399 C.ar    
  12 C12           -4.3501    -4.7383     0.8253 C.ar    
  13 C13           -3.2335    -4.6507     1.6303 C.ar    
  14 N14           -0.9640    -3.5540     1.9123 N.am    
  15 Br15          -5.9668    -4.1222    -1.4379 Br      
  16 O16           -0.2724    -2.6322    -1.1822 O.3     
  17 C17            1.1826     2.1851     0.0025 C.ar    
  18 C18            1.1569     3.5623     0.0102 C.ar    
  19 C19           -0.0554     4.2363     0.0259 C.ar    
  20 C20           -1.2490     3.5295     0.0335 C.ar    
  21 C21           -1.2374     2.1522     0.0196 C.ar    
  22 F22           -0.0737     5.5872     0.0343 F       
  23 H23           -1.8592    -0.5245     0.9070 H       
  24 H24           -1.8762    -0.5150    -0.8728 H       
  25 H25           -3.4479    -2.5806    -1.6079 H       
  26 H26           -5.1646    -5.3898     1.1058 H       
  27 H27           -3.1767    -5.2330     2.5381 H       
  28 H28           -0.6933    -3.9662     2.7476 H       
  29 H29            0.5721    -2.1719    -1.2821 H       
  30 H30            2.1271     1.6615    -0.0090 H       
  31 H31            2.0826     4.1185     0.0043 H       
  32 H32           -2.1895     4.0603     0.0457 H       
  33 H33           -2.1674     1.6030     0.0256 H       
@<TRIPOS>BOND
   1    1    2 1
   2    1   17 ar
   3    1   21 ar
   4    2    3 1
   5    2    9 2
   6    3    4 1
   7    3   23 1
   8    3   24 1
   9    4    5 1
  10    4   16 1
  11    4    6 1
  12    5    8 2
  13    5   14 am
  14    6    7 ar
  15    6   10 ar
  16    7   14 1
  17    7   13 ar
  18   10   11 ar
  19   10   25 1
  20   11   12 ar
  21   11   15 1
  22   12   13 ar
  23   12   26 1
  24   13   27 1
  25   14   28 1
  26   16   29 1
  27   17   18 ar
  28   17   30 1
  29   18   19 ar
  30   18   31 1
  31   19   20 ar
  32   19   22 1
  33   20   21 ar
  34   20   32 1
  35   21   33 1

#	End of record

