#	Name: ASD01028809
#	Creating user name:	WinNT
#	Creation time:	15. 06. 2019 18:58

#	Modifying user name:	WinNT
#	Modification time:	15. 06. 2019 18:58

#	Program:	/corina/corina34_cracker 3.40 0067  02.08.2006

@<TRIPOS>MOLECULE
ASD01028809
  35   36    0    0    0
SMALL
NO_CHARGES


@<TRIPOS>ATOM
   1 C1            -0.0162     1.3436     0.0094 C.2     
   2 N2             0.0021    -0.0041     0.0020 N.am    
   3 O3             1.0278     1.9654     0.0028 O.2     
   4 O4            -1.1914     2.0009     0.0186 O.3     
   5 C5            -1.2565    -0.7538     0.0100 C.3     
   6 C6             2.7534    -2.2439    -0.0363 C.2     
   7 C7             3.2496    -3.5620    -0.0477 C.2     
   8 C8             2.3731    -4.5998    -0.0445 C.2     
   9 C9             0.9798    -4.3541    -0.0303 C.2     
  10 N10            0.5124    -3.1234    -0.0196 N.2     
  11 N11            1.3866    -2.0354    -0.0221 N.pl3   
  12 N12            2.4144    -0.1405    -0.0196 N.2     
  13 N13            3.3215    -1.0531    -0.0305 N.2     
  14 C14            1.2184    -0.6844    -0.0133 C.2     
  15 C15            0.0397    -5.4904    -0.0280 C.2     
  16 O16           -1.1555    -5.2883    -0.0159 O.2     
  17 C17           -1.1351     3.4518     0.0262 C.3     
  18 C18           -0.4005     3.9403    -1.2239 C.3     
  19 C19           -2.5567     4.0173     0.0360 C.3     
  20 C20           -0.3887     3.9267     1.2745 C.3     
  21 H21           -1.5785    -0.9342    -1.0156 H       
  22 H22           -1.1084    -1.7071     0.5173 H       
  23 H23           -2.0192    -0.1778     0.5342 H       
  24 H24            4.3139    -3.7454    -0.0592 H       
  25 H25            2.7407    -5.6152    -0.0531 H       
  26 H26            0.4161    -6.5027    -0.0370 H       
  27 H27           -0.9323     3.6020    -2.1132 H       
  28 H28           -0.3583     5.0294    -1.2182 H       
  29 H29            0.6123     3.5374    -1.2309 H       
  30 H30           -3.0800     3.6693     0.9266 H       
  31 H31           -2.5144     5.1065     0.0417 H       
  32 H32           -3.0884     3.6790    -0.8533 H       
  33 H33            0.6241     3.5238     1.2675 H       
  34 H34           -0.3464     5.0158     1.2802 H       
  35 H35           -0.9120     3.5787     2.1651 H       
@<TRIPOS>BOND
   1    1    2 am
   2    1    3 2
   3    1    4 1
   4    2    5 1
   5    2   14 1
   6    4   17 1
   7    5   21 1
   8    5   22 1
   9    5   23 1
  10    6    7 1
  11    6   11 1
  12    6   13 2
  13    7    8 2
  14    7   24 1
  15    8    9 1
  16    8   25 1
  17    9   10 2
  18    9   15 1
  19   10   11 1
  20   11   14 1
  21   12   13 1
  22   12   14 2
  23   15   16 2
  24   15   26 1
  25   17   18 1
  26   17   20 1
  27   17   19 1
  28   18   27 1
  29   18   28 1
  30   18   29 1
  31   19   30 1
  32   19   31 1
  33   19   32 1
  34   20   33 1
  35   20   34 1
  36   20   35 1

#	End of record

