#	Name: ASD01030028
#	Creating user name:	WinNT
#	Creation time:	15. 06. 2019 18:58

#	Modifying user name:	WinNT
#	Modification time:	15. 06. 2019 18:58

#	Program:	/corina/corina34_cracker 3.40 0067  02.08.2006

@<TRIPOS>MOLECULE
ASD01030028
  53   52    0    0    0
SMALL
NO_CHARGES


@<TRIPOS>ATOM
   1 C1            -1.5205    -0.1629     0.0624 C.3     
   2 C2            -0.0017     0.0139     0.0091 C.3     
   3 C3             0.6072    -0.3996     1.3504 C.3     
   4 C4             0.4025    -1.9010     1.5622 C.3     
   5 C5             0.8991    -2.2919     2.9556 C.3     
   6 C6             0.6944    -3.7933     3.1673 C.3     
   7 C7             1.1910    -4.1842     4.5607 C.3     
   8 C8             0.8732    -5.6581     4.8205 C.3     
   9 C9             1.2563    -6.0168     6.2576 C.3     
  10 C10            0.9386    -7.4908     6.5174 C.3     
  11 C11            1.3217    -7.8495     7.9545 C.3     
  12 C12            0.8902    -9.2866     8.2538 C.3     
  13 C13            2.8372    -7.7262     8.1243 C.3     
  14 C14            2.7032    -3.9663     4.6429 C.3     
  15 C15            2.1043    -0.0841     1.3498 C.3     
  16 O16           -2.0720     0.7410     1.0221 O.3     
  17 P17           -2.2309     0.1866    -1.5797 P.3     
  18 O18           -1.6097    -0.8318    -2.6610 O.3     
  19 O19           -3.8291     0.0005    -1.5237 O.3     
  20 O20           -1.9096     1.5774    -1.9705 O.2     
  21 H21           -1.7572    -1.1872     0.3502 H       
  22 H22            0.4091    -0.6103    -0.7843 H       
  23 H23            0.2356     1.0588    -0.1909 H       
  24 H24            0.1203     0.1506     2.1556 H       
  25 H25           -0.6576    -2.1391     1.4743 H       
  26 H26            0.9629    -2.4540     0.8084 H       
  27 H27            1.9591    -2.0538     3.0435 H       
  28 H28            0.3387    -1.7389     3.7094 H       
  29 H29           -0.3657    -4.0314     3.0794 H       
  30 H30            1.2547    -4.3463     2.4135 H       
  31 H31            0.6939    -3.5679     5.3098 H       
  32 H32           -0.1931    -5.8311     4.6747 H       
  33 H33            1.4402    -6.2797     4.1274 H       
  34 H34            2.3226    -5.8439     6.4034 H       
  35 H35            0.6894    -5.3953     6.9507 H       
  36 H36           -0.1277    -7.6637     6.3717 H       
  37 H37            1.5055    -8.1123     5.8243 H       
  38 H38            0.8223    -7.1691     8.6443 H       
  39 H39            1.3896    -9.9670     7.5640 H       
  40 H40            1.1632    -9.5421     9.2777 H       
  41 H41           -0.1895    -9.3744     8.1329 H       
  42 H42            3.1446    -6.7024     7.9111 H       
  43 H43            3.1102    -7.9817     9.1481 H       
  44 H44            3.3366    -8.4066     7.4345 H       
  45 H45            2.9295    -2.9163     4.4578 H       
  46 H46            3.0570    -4.2448     5.6355 H       
  47 H47            3.2003    -4.5827     3.8938 H       
  48 H48            2.6073    -0.7106     0.6131 H       
  49 H49            2.2543     0.9655     1.0973 H       
  50 H50            2.5179    -0.2826     2.3386 H       
  51 H51           -1.8998     1.6728     0.8291 H       
  52 H52           -1.7819    -1.7636    -2.4680 H       
  53 H53           -4.2747     0.1708    -2.3649 H       
@<TRIPOS>BOND
   1    1    2 1
   2    1   16 1
   3    1   17 1
   4    1   21 1
   5    2    3 1
   6    2   22 1
   7    2   23 1
   8    3    4 1
   9    3   15 1
  10    3   24 1
  11    4    5 1
  12    4   25 1
  13    4   26 1
  14    5    6 1
  15    5   27 1
  16    5   28 1
  17    6    7 1
  18    6   29 1
  19    6   30 1
  20    7    8 1
  21    7   14 1
  22    7   31 1
  23    8    9 1
  24    8   32 1
  25    8   33 1
  26    9   10 1
  27    9   34 1
  28    9   35 1
  29   10   11 1
  30   10   36 1
  31   10   37 1
  32   11   12 1
  33   11   13 1
  34   11   38 1
  35   12   39 1
  36   12   40 1
  37   12   41 1
  38   13   42 1
  39   13   43 1
  40   13   44 1
  41   14   45 1
  42   14   46 1
  43   14   47 1
  44   15   48 1
  45   15   49 1
  46   15   50 1
  47   16   51 1
  48   17   18 1
  49   17   19 1
  50   17   20 2
  51   18   52 1
  52   19   53 1

#	End of record

