#	Name: ASD01910285
#	Creating user name:	WinNT
#	Creation time:	15. 06. 2019 19:55

#	Modifying user name:	WinNT
#	Modification time:	15. 06. 2019 19:55

#	Program:	/corina/corina34_cracker 3.40 0067  02.08.2006

@<TRIPOS>MOLECULE
ASD01910285
  44   47    0    0    0
SMALL
NO_CHARGES


@<TRIPOS>ATOM
   1 C1            -0.6753     2.3239     0.1867 C.ar    
   2 C2            -0.8084     0.9489     0.2562 C.ar    
   3 C3             0.3140     0.1421     0.3052 C.ar    
   4 C4             1.5737     0.7060     0.2855 C.ar    
   5 C5             1.7134     2.0902     0.2156 C.ar    
   6 C6             0.5797     2.8981     0.1660 C.ar    
   7 C7             3.0658     2.7023     0.1945 C.2     
   8 N8             3.3469     3.9885     0.1307 N.2     
   9 N9             4.6296     4.1125     0.1341 N.pl3   
  10 N10            5.1700     2.9458     0.1980 N.2     
  11 N11            4.2385     2.0547     0.2425 N.2     
  12 C12            5.3585     5.3819     0.0738 C.3     
  13 C13            6.2287     5.5311     1.3238 C.3     
  14 C14            6.9654     6.8717     1.2775 C.3     
  15 C15            7.8769     6.9067     0.0468 C.3     
  16 N16            7.0704     6.6198    -1.1473 N.am    
  17 C17            6.2518     5.3999    -1.1706 C.3     
  18 C18            7.0814     7.4596    -2.2014 C.2     
  19 C19            6.3696     7.0953    -3.4435 C.ar    
  20 O20            7.6770     8.5170    -2.1299 O.2     
  21 C21            5.6266     8.0559    -4.1329 C.ar    
  22 C22            4.9648     7.7107    -5.2917 C.ar    
  23 C23            5.0358     6.4123    -5.7731 C.ar    
  24 C24            5.7717     5.4545    -5.0922 C.ar    
  25 C25            6.4421     5.7904    -3.9356 C.ar    
  26 F26            4.3853     6.0792    -6.9093 F       
  27 H27           -1.5549     2.9491     0.1441 H       
  28 H28           -1.7922     0.5036     0.2726 H       
  29 H29            0.2046    -0.9310     0.3594 H       
  30 H30            2.4494     0.0751     0.3245 H       
  31 H31            0.6825     3.9718     0.1113 H       
  32 H32            4.6482     6.2072     0.0243 H       
  33 H33            5.5979     5.4938     2.2120 H       
  34 H34            6.9547     4.7188     1.3599 H       
  35 H35            6.2404     7.6833     1.2164 H       
  36 H36            7.5668     6.9876     2.1791 H       
  37 H37            8.3282     7.8945    -0.0457 H       
  38 H38            8.6585     6.1538     0.1494 H       
  39 H39            6.9008     4.5242    -1.1672 H       
  40 H40            5.6308     5.3936    -2.0663 H       
  41 H41            5.5704     9.0674    -3.7587 H       
  42 H42            4.3896     8.4527    -5.8255 H       
  43 H43            5.8235     4.4445    -5.4713 H       
  44 H44            7.0153     5.0436    -3.4063 H       
@<TRIPOS>BOND
   1    1    2 ar
   2    1    6 ar
   3    1   27 1
   4    2    3 ar
   5    2   28 1
   6    3    4 ar
   7    3   29 1
   8    4    5 ar
   9    4   30 1
  10    5    6 ar
  11    5    7 1
  12    6   31 1
  13    7    8 2
  14    7   11 1
  15    8    9 1
  16    9   10 1
  17    9   12 1
  18   10   11 2
  19   12   13 1
  20   12   17 1
  21   12   32 1
  22   13   14 1
  23   13   33 1
  24   13   34 1
  25   14   15 1
  26   14   35 1
  27   14   36 1
  28   15   16 1
  29   15   37 1
  30   15   38 1
  31   16   17 1
  32   16   18 am
  33   17   39 1
  34   17   40 1
  35   18   19 1
  36   18   20 2
  37   19   21 ar
  38   19   25 ar
  39   21   22 ar
  40   21   41 1
  41   22   23 ar
  42   22   42 1
  43   23   24 ar
  44   23   26 1
  45   24   25 ar
  46   24   43 1
  47   25   44 1

#	End of record

