#	Name: ASD03430065
#	Creating user name:	WinNT
#	Creation time:	15. 06. 2019 20:40

#	Modifying user name:	WinNT
#	Modification time:	15. 06. 2019 20:40

#	Program:	/corina/corina34_cracker 3.40 0067  02.08.2006

@<TRIPOS>MOLECULE
ASD03430065
  39   43    0    0    0
SMALL
NO_CHARGES


@<TRIPOS>ATOM
   1 C1            -0.0167     1.3822     0.0096 C.ar    
   2 C2             0.0021    -0.0041     0.0020 C.ar    
   3 C3             1.2029    -0.6817    -0.0152 C.ar    
   4 C4             2.4086     0.0132    -0.0144 C.ar    
   5 C5             2.3860     1.4042    -0.0110 C.ar    
   6 C6             1.1814     2.0870     0.0020 C.ar    
   7 O7             3.4716    -0.8414    -0.0037 O.3     
   8 C8             1.5514    -2.1456    -0.0493 C.3     
   9 C9             3.0373    -2.1454    -0.4346 C.3     
  10 C10            0.4297    -3.8601     1.0079 C.ar    
  11 C11            1.3143    -2.8199     1.2689 C.ar    
  12 C12            0.7189    -2.9068    -1.0408 C.2     
  13 N13            0.1008    -3.8856    -0.3501 N.am    
  14 O14            0.6215    -2.6843    -2.2291 O.2     
  15 C15            1.7817    -2.5983     2.5598 C.ar    
  16 C16            1.3592    -3.4280     3.6023 C.ar    
  17 C17            0.4820    -4.4604     3.3410 C.ar    
  18 C18            0.0190    -4.6787     2.0585 C.ar    
  19 C19           -0.8095    -4.8624    -0.9529 C.3     
  20 O20           -1.2112     2.0356     0.0189 O.3     
  21 C21           -1.1865     3.4164     0.3970 C.3     
  22 C22           -0.0353     4.0990    -0.3540 C.3     
  23 O23            1.1866     3.4487     0.0106 O.3     
  24 C24            2.6926    -1.5244     2.8200 C.1     
  25 N25            3.4152    -0.6726     3.0264 N.1     
  26 H26           -0.9268    -0.5550     0.0099 H       
  27 H27            3.3146     1.9555    -0.0183 H       
  28 H28            3.1577    -2.2570    -1.5122 H       
  29 H29            3.5756    -2.9286     0.0992 H       
  30 H30            1.7180    -3.2621     4.6074 H       
  31 H31            0.1553    -5.1027     4.1454 H       
  32 H32           -0.6674    -5.4905     1.8680 H       
  33 H33           -1.8285    -4.4766    -0.9221 H       
  34 H34           -0.5190    -5.0390    -1.9885 H       
  35 H35           -0.7584    -5.7983    -0.3965 H       
  36 H36           -2.1317     3.8882     0.1284 H       
  37 H37           -1.0254     3.5005     1.4718 H       
  38 H38           -0.1925     4.0081    -1.4288 H       
  39 H39            0.0114     5.1520    -0.0766 H       
@<TRIPOS>BOND
   1    1    2 ar
   2    1    6 ar
   3    1   20 1
   4    2    3 ar
   5    2   26 1
   6    3    4 ar
   7    3    8 1
   8    4    5 ar
   9    4    7 1
  10    5    6 ar
  11    5   27 1
  12    6   23 1
  13    7    9 1
  14    8    9 1
  15    8   11 1
  16    8   12 1
  17    9   28 1
  18    9   29 1
  19   10   11 ar
  20   10   13 1
  21   10   18 ar
  22   11   15 ar
  23   12   13 am
  24   12   14 2
  25   13   19 1
  26   15   16 ar
  27   15   24 1
  28   16   17 ar
  29   16   30 1
  30   17   18 ar
  31   17   31 1
  32   18   32 1
  33   19   33 1
  34   19   34 1
  35   19   35 1
  36   20   21 1
  37   21   22 1
  38   21   36 1
  39   21   37 1
  40   22   23 1
  41   22   38 1
  42   22   39 1
  43   24   25 3

#	End of record

