#	Name: ASD04880609
#	Creating user name:	WinNT
#	Creation time:	15. 06. 2019 20:53

#	Modifying user name:	WinNT
#	Modification time:	15. 06. 2019 20:53

#	Program:	/corina/corina34_cracker 3.40 0067  02.08.2006

@<TRIPOS>MOLECULE
ASD04880609
  54   57    0    0    0
SMALL
NO_CHARGES


@<TRIPOS>ATOM
   1 C1            -0.0123     1.3680    -0.2514 C.ar    
   2 C2             0.0103    -0.0182    -0.2882 C.ar    
   3 C3             1.2261    -0.6993    -0.2775 C.ar    
   4 C4             2.4132     0.0064    -0.2295 C.ar    
   5 C5             2.3908     1.4034    -0.1924 C.ar    
   6 C6             1.1684     2.0794    -0.2039 C.ar    
   7 C7             3.6540     2.1616    -0.1406 C.2     
   8 N8             4.8331     1.6419    -0.1260 N.2     
   9 N9             5.8660     2.5757    -0.0756 N.am    
  10 C10            5.2849     3.9275    -0.0532 C.3     
  11 C11            3.7660     3.6690    -0.1032 C.3     
  12 C12            7.1825     2.2879    -0.0509 C.2     
  13 C13            7.6300     0.8829     0.0489 C.ar    
  14 O14            8.0020     3.1842    -0.1107 O.2     
  15 C15            8.9847     0.5690    -0.0690 C.ar    
  16 C16            9.3961    -0.7470     0.0258 C.ar    
  17 C17            8.4661    -1.7521     0.2375 C.ar    
  18 C18            7.1222    -1.4454     0.3546 C.ar    
  19 C19            6.6998    -0.1352     0.2674 C.ar    
  20 F20           10.7068    -1.0538    -0.0884 F       
  21 O21           -1.1563    -0.7144    -0.3345 O.3     
  22 C22           -2.3659     0.0465    -0.3425 C.3     
  23 O23            1.2443    -2.0586    -0.3137 O.3     
  24 C24            2.5257    -2.6910    -0.3001 C.3     
  25 C25            3.1646     4.2747    -1.3452 C.ar    
  26 C26            2.1247     5.1793    -1.2392 C.ar    
  27 C27            1.5731     5.7348    -2.3785 C.ar    
  28 C28            2.0616     5.3862    -3.6237 C.ar    
  29 C29            3.1021     4.4823    -3.7297 C.ar    
  30 C30            3.6567     3.9300    -2.5902 C.ar    
  31 C31            1.4596     5.9911    -4.8658 C.3     
  32 H32           -0.9567     1.8919    -0.2644 H       
  33 H33            3.3561    -0.5203    -0.2204 H       
  34 H34            1.1479     3.1589    -0.1756 H       
  35 H35            5.5589     4.4477     0.8646 H       
  36 H36            5.6026     4.4961    -0.9272 H       
  37 H37            3.2829     4.0662     0.7895 H       
  38 H38            9.7096     1.3523    -0.2344 H       
  39 H39            8.7918    -2.7792     0.3110 H       
  40 H40            6.4023    -2.2335     0.5191 H       
  41 H41            5.6507     0.1024     0.3636 H       
  42 H42           -2.4211     0.6507     0.5630 H       
  43 H43           -2.3791     0.6987    -1.2158 H       
  44 H44           -3.2201    -0.6295    -0.3809 H       
  45 H45            3.0999    -2.3671    -1.1681 H       
  46 H46            3.0573    -2.4151     0.6107 H       
  47 H47            2.3973    -3.7729    -0.3324 H       
  48 H48            1.7430     5.4517    -0.2664 H       
  49 H49            0.7601     6.4410    -2.2957 H       
  50 H50            3.4836     4.2096    -4.7026 H       
  51 H51            4.4720     3.2266    -2.6728 H       
  52 H52            1.9902     6.9096    -5.1165 H       
  53 H53            1.5450     5.2851    -5.6919 H       
  54 H54            0.4081     6.2160    -4.6874 H       
@<TRIPOS>BOND
   1    1    2 ar
   2    1    6 ar
   3    1   32 1
   4    2    3 ar
   5    2   21 1
   6    3    4 ar
   7    3   23 1
   8    4    5 ar
   9    4   33 1
  10    5    6 ar
  11    5    7 1
  12    6   34 1
  13    7    8 2
  14    7   11 1
  15    8    9 1
  16    9   10 1
  17    9   12 am
  18   10   11 1
  19   10   35 1
  20   10   36 1
  21   11   25 1
  22   11   37 1
  23   12   13 1
  24   12   14 2
  25   13   15 ar
  26   13   19 ar
  27   15   16 ar
  28   15   38 1
  29   16   17 ar
  30   16   20 1
  31   17   18 ar
  32   17   39 1
  33   18   19 ar
  34   18   40 1
  35   19   41 1
  36   21   22 1
  37   22   42 1
  38   22   43 1
  39   22   44 1
  40   23   24 1
  41   24   45 1
  42   24   46 1
  43   24   47 1
  44   25   26 ar
  45   25   30 ar
  46   26   27 ar
  47   26   48 1
  48   27   28 ar
  49   27   49 1
  50   28   29 ar
  51   28   31 1
  52   29   30 ar
  53   29   50 1
  54   30   51 1
  55   31   52 1
  56   31   53 1
  57   31   54 1

#	End of record

