#	Name: ASD03330194
#	Creating user name:	WinNT
#	Creation time:	15. 06. 2019 20:36

#	Modifying user name:	WinNT
#	Modification time:	15. 06. 2019 20:36

#	Program:	/corina/corina34_cracker 3.40 0067  02.08.2006

@<TRIPOS>MOLECULE
ASD03330194
  49   52    0    0    0
SMALL
NO_CHARGES


@<TRIPOS>ATOM
   1 C1             0.5869     0.5995     3.0026 C.ar    
   2 C2             0.3345    -0.1441     1.8633 C.ar    
   3 C3             1.3844    -0.6166     1.0982 C.ar    
   4 C4             2.6932    -0.3440     1.4735 C.ar    
   5 C5             2.9437     0.4029     2.6170 C.ar    
   6 C6             1.8903     0.8726     3.3789 C.ar    
   7 N7             3.7578    -0.8215     0.7010 N.am    
   8 C8             4.8935    -0.1027     0.6013 C.2     
   9 N9             5.9568    -0.6101    -0.0532 N.am    
  10 O10            4.9589     1.0034     1.1019 O.2     
  11 C11            7.0976     0.1763    -0.2506 C.ar    
  12 C12            8.3526    -0.4127    -0.2604 C.ar    
  13 C13            9.4849     0.3740    -0.4571 C.ar    
  14 C14            9.3501     1.7487    -0.6431 C.ar    
  15 C15            8.0965     2.3275    -0.6319 C.ar    
  16 C16            6.9722     1.5469    -0.4425 C.ar    
  17 C17           10.8310    -0.2495    -0.4683 C.ar    
  18 N18           10.9501    -1.5598    -0.2900 N.ar    
  19 C19           11.9560     0.5435    -0.6713 C.ar    
  20 C20           13.2095    -0.0489    -0.6804 C.ar    
  21 C21           13.2973    -1.4165    -0.4861 C.ar    
  22 C22           12.1321    -2.1535    -0.2936 C.ar    
  23 N23           12.2121    -3.5272    -0.0973 N.3     
  24 C24           10.8718    -4.1137     0.0856 C.3     
  25 C25           10.7003    -5.2067    -0.9902 C.3     
  26 C26           12.1636    -5.5676    -1.3581 C.3     
  27 C27           12.8629    -4.1897    -1.2477 C.3     
  28 Cl28          -1.3020    -0.4845     1.3947 Cl      
  29 Cl29           2.2027     1.8069     4.8083 Cl      
  30 H30           -0.2348     0.9713     3.5967 H       
  31 H31            1.1869    -1.1976     0.2094 H       
  32 H32            3.9608     0.6160     2.9113 H       
  33 H33            3.6783    -1.6697     0.2373 H       
  34 H34            5.9315    -1.5204    -0.3875 H       
  35 H35            8.4519    -1.4783    -0.1155 H       
  36 H36           10.2263     2.3614    -0.7955 H       
  37 H37            7.9942     3.3929    -0.7762 H       
  38 H38            5.9939     2.0045    -0.4350 H       
  39 H39           11.8540     1.6083    -0.8204 H       
  40 H40           14.0986     0.5441    -0.8362 H       
  41 H41           14.2594    -1.9072    -0.4878 H       
  42 H42           10.7928    -4.5554     1.0790 H       
  43 H43           10.1099    -3.3447    -0.0423 H       
  44 H44           10.1812    -6.0730    -0.5801 H       
  45 H45           10.1704    -4.8137    -1.8578 H       
  46 H46           12.5824    -6.2763    -0.6438 H       
  47 H47           12.2260    -5.9568    -2.3743 H       
  48 H48           12.7060    -3.6106    -2.1577 H       
  49 H49           13.9284    -4.3191    -1.0581 H       
@<TRIPOS>BOND
   1    1    2 ar
   2    1    6 ar
   3    1   30 1
   4    2    3 ar
   5    2   28 1
   6    3    4 ar
   7    3   31 1
   8    4    5 ar
   9    4    7 1
  10    5    6 ar
  11    5   32 1
  12    6   29 1
  13    7    8 am
  14    7   33 1
  15    8    9 am
  16    8   10 2
  17    9   11 1
  18    9   34 1
  19   11   12 ar
  20   11   16 ar
  21   12   13 ar
  22   12   35 1
  23   13   14 ar
  24   13   17 1
  25   14   15 ar
  26   14   36 1
  27   15   16 ar
  28   15   37 1
  29   16   38 1
  30   17   18 ar
  31   17   19 ar
  32   18   22 ar
  33   19   20 ar
  34   19   39 1
  35   20   21 ar
  36   20   40 1
  37   21   22 ar
  38   21   41 1
  39   22   23 1
  40   23   24 1
  41   23   27 1
  42   24   25 1
  43   24   42 1
  44   24   43 1
  45   25   26 1
  46   25   44 1
  47   25   45 1
  48   26   27 1
  49   26   46 1
  50   26   47 1
  51   27   48 1
  52   27   49 1

#	End of record

