#	Name: ASD01881471
#	Creating user name:	WinNT
#	Creation time:	15. 06. 2019 19:42

#	Modifying user name:	WinNT
#	Modification time:	15. 06. 2019 19:42

#	Program:	/corina/corina34_cracker 3.40 0067  02.08.2006

@<TRIPOS>MOLECULE
ASD01881471
  47   51    0    0    0
SMALL
NO_CHARGES


@<TRIPOS>ATOM
   1 C1            -0.0170     1.4020     0.0098 C.2     
   2 C2             0.0021    -0.0041     0.0020 C.2     
   3 C3             1.2211    -0.6579    -0.0131 C.2     
   4 C4             2.4161     0.1022    -0.0205 C.2     
   5 C5             2.3641     1.4471    -0.0128 C.2     
   6 N6             1.1655     2.1014     0.0022 N.pl3   
   7 N7            -0.4881     3.4811     0.0230 N.2     
   8 N8            -0.9925     2.2974     0.0186 N.2     
   9 C9             0.8184     3.4180     0.0126 C.2     
  10 C10            1.2760    -2.1381    -0.0211 C.ar    
  11 C11            1.8012    -2.8120    -1.1242 C.ar    
  12 C12            1.8511    -4.1892    -1.1291 C.ar    
  13 C13            1.3782    -4.9072    -0.0363 C.ar    
  14 C14            0.8543    -4.2380     1.0642 C.ar    
  15 C15            0.8078    -2.8607     1.0768 C.ar    
  16 N16            1.4290    -6.3015    -0.0442 N.3     
  17 C17            0.8807    -6.8558     1.2021 C.3     
  18 C18            0.9005    -8.3848     1.1265 C.3     
  19 O19            2.2378    -8.8275     0.8793 O.3     
  20 C20            2.8027    -8.3072    -0.3271 C.3     
  21 C21            2.8021    -6.7774    -0.2662 C.3     
  22 C22            1.7666     4.5893     0.0099 C.3     
  23 C23            2.0738     4.9934    -1.4335 C.3     
  24 C24            2.9300     6.2427    -1.6504 C.3     
  25 C25            3.5201     4.8557    -1.9131 C.3     
  26 Cl26          -1.4814    -0.9056     0.0119 Cl      
  27 H27            3.3726    -0.3992    -0.0320 H       
  28 H28            3.2820     2.0162    -0.0181 H       
  29 H29            2.1680    -2.2548    -1.9735 H       
  30 H30            2.2576    -4.7113    -1.9827 H       
  31 H31            0.4875    -4.7979     1.9118 H       
  32 H32            0.4049    -2.3413     1.9336 H       
  33 H33            1.4871    -6.5252     2.0453 H       
  34 H34           -0.1451    -6.5112     1.3334 H       
  35 H35            0.5481    -8.8005     2.0705 H       
  36 H36            0.2514    -8.7176     0.3166 H       
  37 H37            3.8261    -8.6668    -0.4344 H       
  38 H38            2.2089    -8.6377    -1.1792 H       
  39 H39            3.1791    -6.3756    -1.2067 H       
  40 H40            3.4394    -6.4455     0.5535 H       
  41 H41            1.3085     5.4289     0.5326 H       
  42 H42            2.6918     4.3089     0.5134 H       
  43 H43            1.2824     4.7940    -2.1561 H       
  44 H44            2.7023     6.8650    -2.5158 H       
  45 H45            3.2746     6.7767    -0.7648 H       
  46 H46            4.2528     4.4772    -1.2004 H       
  47 H47            3.6805     4.5655    -2.9515 H       
@<TRIPOS>BOND
   1    1    2 1
   2    1    6 1
   3    1    8 2
   4    2    3 2
   5    2   26 1
   6    3    4 1
   7    3   10 1
   8    4    5 2
   9    4   27 1
  10    5    6 1
  11    5   28 1
  12    6    9 1
  13    7    8 1
  14    7    9 2
  15    9   22 1
  16   10   11 ar
  17   10   15 ar
  18   11   12 ar
  19   11   29 1
  20   12   13 ar
  21   12   30 1
  22   13   14 ar
  23   13   16 1
  24   14   15 ar
  25   14   31 1
  26   15   32 1
  27   16   17 1
  28   16   21 1
  29   17   18 1
  30   17   33 1
  31   17   34 1
  32   18   19 1
  33   18   35 1
  34   18   36 1
  35   19   20 1
  36   20   21 1
  37   20   37 1
  38   20   38 1
  39   21   39 1
  40   21   40 1
  41   22   23 1
  42   22   41 1
  43   22   42 1
  44   23   24 1
  45   23   25 1
  46   23   43 1
  47   24   25 1
  48   24   44 1
  49   24   45 1
  50   25   46 1
  51   25   47 1

#	End of record

