#	Name: ASD01411117
#	Creating user name:	WinNT
#	Creation time:	15. 06. 2019 19:19

#	Modifying user name:	WinNT
#	Modification time:	15. 06. 2019 19:19

#	Program:	/corina/corina34_cracker 3.40 0067  02.08.2006

@<TRIPOS>MOLECULE
ASD01411117
  54   56    0    0    0
SMALL
NO_CHARGES


@<TRIPOS>ATOM
   1 C1            -0.1804     1.6238     0.3406 C.3     
   2 C2            -0.2234     0.0938     0.2169 C.3     
   3 O3             1.1743     2.0717     0.2422 O.3     
   4 C4             0.8311    -0.4737     1.1336 C.2     
   5 C5             1.9878     1.7476     1.3766 C.3     
   6 C6             1.8336     0.2720     1.6612 C.2     
   7 C7             1.0012    -1.8193     1.6179 C.ar    
   8 C8             1.5281     2.5582     2.5901 C.3     
   9 N9             2.6268    -0.5124     2.4477 N.pl3   
  10 C10            0.2766    -3.0133     1.4117 C.ar    
  11 C11            2.1525    -1.7947     2.4475 C.ar    
  12 C12            0.7543    -4.1555     2.0651 C.ar    
  13 C13            2.5983    -2.9514     3.0814 C.ar    
  14 C14            1.8754    -4.1157     2.8689 C.ar    
  15 C15            2.3817     2.1871     3.8044 C.3     
  16 C16            3.4526     2.0646     1.0689 C.3     
  17 N17            3.6135     3.5106     0.8968 N.am    
  18 C18            4.7996     4.0929     1.1620 C.2     
  19 O19            5.7356     3.4187     1.5439 O.2     
  20 O20            4.9475     5.4218     1.0037 O.3     
  21 C21            6.2282     7.4919     1.0706 C.3     
  22 C22            6.2526     5.9807     1.3080 C.3     
  23 C23           -0.8868    -3.0538     0.5778 C.1     
  24 N24           -1.8098    -3.0860    -0.0837 N.1     
  25 C25            3.8192    -2.9386     3.9647 C.3     
  26 C26            1.9904     3.0693     4.9916 C.3     
  27 C27            3.8640     1.3591    -0.1976 C.2     
  28 O28            4.2518     1.9985    -1.1466 O.2     
  29 O29            3.7996     0.0204    -0.2713 O.3     
  30 H30           -0.7698     2.0699    -0.4605 H       
  31 H31           -0.5927     1.9221     1.3046 H       
  32 H32           -1.2062    -0.2729     0.5134 H       
  33 H33           -0.0145    -0.1991    -0.8120 H       
  34 H34            1.6387     3.6219     2.3795 H       
  35 H35            0.4817     2.3362     2.8000 H       
  36 H36            3.4090    -0.2065     2.9330 H       
  37 H37            0.2317    -5.0920     1.9372 H       
  38 H38            2.2021    -5.0254     3.3506 H       
  39 H39            2.2156     1.1404     4.0591 H       
  40 H40            3.4348     2.3410     3.5689 H       
  41 H41            4.0789     1.7251     1.8939 H       
  42 H42            2.8663     4.0488     0.5919 H       
  43 H43            5.9814     7.6920     0.0279 H       
  44 H44            5.4779     7.9490     1.7157 H       
  45 H45            7.2080     7.9115     1.2990 H       
  46 H46            6.4994     5.7806     2.3507 H       
  47 H47            7.0030     5.5236     0.6629 H       
  48 H48            3.5233    -2.7177     4.9903 H       
  49 H49            4.3040    -3.9142     3.9286 H       
  50 H50            4.5133    -2.1748     3.6142 H       
  51 H51            2.5986     2.8050     5.8567 H       
  52 H52            2.1565     4.1160     4.7368 H       
  53 H53            0.9373     2.9154     5.2271 H       
  54 H54            4.0740    -0.3871    -1.1042 H       
@<TRIPOS>BOND
   1    1    2 1
   2    1    3 1
   3    1   30 1
   4    1   31 1
   5    2    4 1
   6    2   32 1
   7    2   33 1
   8    3    5 1
   9    4    6 2
  10    4    7 1
  11    5    8 1
  12    5   16 1
  13    5    6 1
  14    6    9 1
  15    7   10 ar
  16    7   11 ar
  17    8   15 1
  18    8   34 1
  19    8   35 1
  20    9   11 1
  21    9   36 1
  22   10   12 ar
  23   10   23 1
  24   11   13 ar
  25   12   14 ar
  26   12   37 1
  27   13   14 ar
  28   13   25 1
  29   14   38 1
  30   15   26 1
  31   15   39 1
  32   15   40 1
  33   16   17 1
  34   16   27 1
  35   16   41 1
  36   17   18 am
  37   17   42 1
  38   18   19 2
  39   18   20 1
  40   20   22 1
  41   21   22 1
  42   21   43 1
  43   21   44 1
  44   21   45 1
  45   22   46 1
  46   22   47 1
  47   23   24 3
  48   25   48 1
  49   25   49 1
  50   25   50 1
  51   26   51 1
  52   26   52 1
  53   26   53 1
  54   27   28 2
  55   27   29 1
  56   29   54 1

#	End of record

