#	Name: ASD07931956
#	Creating user name:	WinNT
#	Creation time:	15. 06. 2019 21:13

#	Modifying user name:	WinNT
#	Modification time:	15. 06. 2019 21:13

#	Program:	/corina/corina34_cracker 3.40 0067  02.08.2006

@<TRIPOS>MOLECULE
ASD07931956
  50   53    0    0    0
SMALL
NO_CHARGES


@<TRIPOS>ATOM
   1 C1             0.0590     1.5194     0.5826 C.ar    
   2 C2             0.1584     0.2615     1.1770 C.ar    
   3 C3             1.3717    -0.4021     1.1499 C.ar    
   4 C4             2.4521     0.2164     0.5263 C.ar    
   5 C5             2.2784     1.4737    -0.0460 C.ar    
   6 N6             1.1123     2.0773    -0.0031 N.ar    
   7 C7            -1.2343     2.2366     0.5994 C.2     
   8 O8            -2.2037     1.7295     1.1294 O.2     
   9 N9            -1.3381     3.4524     0.0271 N.am    
  10 O10            3.6607    -0.3991     0.4773 O.3     
  11 C11            4.7190     0.3007    -0.1803 C.3     
  12 C12           -2.5849     4.0824    -0.0562 C.ar    
  13 C13           -2.6755     5.4634     0.0609 C.ar    
  14 C14           -3.9068     6.0830    -0.0216 C.ar    
  15 C15           -5.0510     5.3283    -0.2205 C.ar    
  16 C16           -4.9629     3.9514    -0.3370 C.ar    
  17 C17           -3.7325     3.3282    -0.2617 C.ar    
  18 F18           -6.2547     5.9364    -0.3005 F       
  19 S19           -2.7087     9.7816    -1.8114 S.3     
  20 C20           -2.0679     9.0489    -0.3441 C.2     
  21 N21           -2.7046     8.1664     0.3235 N.2     
  22 C22           -4.0057     7.5814     0.1053 C.3     
  23 C23           -4.7911     8.1950    -1.0630 C.3     
  24 C24           -3.9122     8.5037    -2.2602 C.3     
  25 O25           -5.4115     9.2914     0.9692 O.3     
  26 C26           -4.9161     7.9837     1.3018 C.3     
  27 C27           -5.3917     9.4721    -0.4544 C.3     
  28 C28           -6.8162     9.6768    -0.9737 C.3     
  29 F29           -7.6058     8.5793    -0.6143 F       
  30 F30           -7.3537    10.8410    -0.4142 F       
  31 F31           -6.7918     9.7974    -2.3672 F       
  32 N32           -0.8281     9.4444     0.1020 N.pl3   
  33 H33           -0.7006    -0.1884     1.6525 H       
  34 H34            1.4786    -1.3770     1.6022 H       
  35 H35            3.1126     1.9587    -0.5312 H       
  36 H36           -0.5486     3.8908    -0.3270 H       
  37 H37            4.4423     0.4859    -1.2182 H       
  38 H38            4.8945     1.2510     0.3240 H       
  39 H39            5.6274    -0.3008    -0.1482 H       
  40 H40           -1.7836     6.0522     0.2167 H       
  41 H41           -5.8565     3.3647    -0.4914 H       
  42 H42           -3.6637     2.2547    -0.3578 H       
  43 H43           -5.5940     7.5206    -1.3606 H       
  44 H44           -4.5313     8.8607    -3.0832 H       
  45 H45           -3.3854     7.6001    -2.5670 H       
  46 H46           -5.7424     7.2800     1.4024 H       
  47 H47           -4.3355     8.0217     2.2235 H       
  48 H48           -4.7730    10.3321    -0.7109 H       
  49 H49           -0.3265    10.1135    -0.3895 H       
  50 H50           -0.4555     9.0541     0.9080 H       
@<TRIPOS>BOND
   1    1    2 ar
   2    1    6 ar
   3    1    7 1
   4    2    3 ar
   5    2   33 1
   6    3    4 ar
   7    3   34 1
   8    4    5 ar
   9    4   10 1
  10    5    6 ar
  11    5   35 1
  12    7    8 2
  13    7    9 am
  14    9   12 1
  15    9   36 1
  16   10   11 1
  17   11   37 1
  18   11   38 1
  19   11   39 1
  20   12   13 ar
  21   12   17 ar
  22   13   14 ar
  23   13   40 1
  24   14   15 ar
  25   14   22 1
  26   15   16 ar
  27   15   18 1
  28   16   17 ar
  29   16   41 1
  30   17   42 1
  31   19   20 1
  32   19   24 1
  33   20   21 2
  34   20   32 1
  35   21   22 1
  36   22   26 1
  37   22   23 1
  38   23   24 1
  39   23   27 1
  40   23   43 1
  41   24   44 1
  42   24   45 1
  43   25   26 1
  44   25   27 1
  45   26   46 1
  46   26   47 1
  47   27   28 1
  48   27   48 1
  49   28   29 1
  50   28   30 1
  51   28   31 1
  52   32   49 1
  53   32   50 1

#	End of record

