#	Name: ASD00510016
#	Creating user name:	WinNT
#	Creation time:	15. 06. 2019 18:36

#	Modifying user name:	WinNT
#	Modification time:	15. 06. 2019 18:36

#	Program:	/corina/corina34_cracker 3.40 0067  02.08.2006

@<TRIPOS>MOLECULE
ASD00510016
  45   48    0    0    0
SMALL
NO_CHARGES


@<TRIPOS>ATOM
   1 C1            -0.0169     1.3951     0.0097 C.ar    
   2 C2             0.0021    -0.0041     0.0020 C.ar    
   3 C3             1.1965    -0.6620    -0.0129 C.ar    
   4 C4             2.3990     0.0399    -0.0205 C.ar    
   5 C5             2.4160     1.4019    -0.0134 C.ar    
   6 C6             1.2038     2.1122     0.0019 C.ar    
   7 C7             1.1824     3.5187     0.0085 C.ar    
   8 C8             0.0049     4.1973     0.0228 C.ar    
   9 C9            -1.2231     3.5374     0.0311 C.ar    
  10 C10           -1.2753     2.1410     0.0196 C.ar    
  11 N11           -2.4681     1.4907     0.0222 N.2     
  12 N12           -3.5692     2.1627     0.0310 N.2     
  13 O13           -2.3744     4.2553     0.0454 O.3     
  14 S14            2.7012     4.4119    -0.0013 S.o2    
  15 O15            2.9817     4.7413     1.3522 O.2     
  16 O16            3.5954     3.6740    -0.8229 O.2     
  17 O17            2.4447     5.7289    -0.7199 O.3     
  18 C18           -4.7637     1.5114     0.0336 C.ar    
  19 C19           -7.2526     0.1954     0.0381 C.ar    
  20 C20           -7.2249     1.6002     0.0395 C.ar    
  21 C21           -6.0160     2.2701     0.0374 C.ar    
  22 C22           -4.8022     0.1200     0.0268 C.ar    
  23 C23           -6.0444    -0.5456     0.0290 C.ar    
  24 C24           -6.0991    -1.9503     0.0284 C.ar    
  25 C25           -7.3058    -2.5811     0.0364 C.ar    
  26 C26           -8.4937    -1.8534     0.0453 C.ar    
  27 C27           -8.4802    -0.4921     0.0458 C.ar    
  28 O28           -3.6484    -0.5926     0.0175 O.3     
  29 C29           -5.9874     3.7441     0.0395 C.2     
  30 O30           -7.1412     4.4404     0.0435 O.3     
  31 O31           -4.9236     4.3312     0.0377 O.2     
  32 H32           -0.9240    -0.5598     0.0082 H       
  33 H33            1.2099    -1.7419    -0.0185 H       
  34 H34            3.3321    -0.5037    -0.0319 H       
  35 H35            3.3564     1.9330    -0.0194 H       
  36 H36            0.0210     5.2771     0.0283 H       
  37 H37           -2.7164     4.4677    -0.8338 H       
  38 H38            3.2218     6.3011    -0.7815 H       
  39 H39           -8.1500     2.1575     0.0465 H       
  40 H40           -5.1864    -2.5277     0.0212 H       
  41 H41           -7.3425    -3.6604     0.0355 H       
  42 H42           -9.4385    -2.3765     0.0516 H       
  43 H43           -9.4092     0.0586     0.0521 H       
  44 H44           -3.3094    -0.8037     0.8982 H       
  45 H45           -7.0719     5.4049     0.0448 H       
@<TRIPOS>BOND
   1    1    2 ar
   2    1    6 ar
   3    1   10 ar
   4    2    3 ar
   5    2   32 1
   6    3    4 ar
   7    3   33 1
   8    4    5 ar
   9    4   34 1
  10    5    6 ar
  11    5   35 1
  12    6    7 ar
  13    7    8 ar
  14    7   14 1
  15    8    9 ar
  16    8   36 1
  17    9   10 ar
  18    9   13 1
  19   10   11 1
  20   11   12 2
  21   12   18 1
  22   13   37 1
  23   14   15 2
  24   14   16 2
  25   14   17 1
  26   17   38 1
  27   18   22 ar
  28   18   21 ar
  29   19   20 ar
  30   19   23 ar
  31   19   27 ar
  32   20   21 ar
  33   20   39 1
  34   21   29 1
  35   22   23 ar
  36   22   28 1
  37   23   24 ar
  38   24   25 ar
  39   24   40 1
  40   25   26 ar
  41   25   41 1
  42   26   27 ar
  43   26   42 1
  44   27   43 1
  45   28   44 1
  46   29   30 1
  47   29   31 2
  48   30   45 1

#	End of record

