#	Name: ASD01883077
#	Creating user name:	WinNT
#	Creation time:	15. 06. 2019 19:45

#	Modifying user name:	WinNT
#	Modification time:	15. 06. 2019 19:45

#	Program:	/corina/corina34_cracker 3.40 0067  02.08.2006

@<TRIPOS>MOLECULE
ASD01883077
  58   61    0    0    0
SMALL
NO_CHARGES


@<TRIPOS>ATOM
   1 N1            -0.0162     1.3417     0.0094 N.am    
   2 C2             0.0021    -0.0041     0.0020 C.2     
   3 C3            -1.2166    -0.7275     0.0102 C.2     
   4 C4            -2.4257    -0.0118     0.0261 C.2     
   5 C5            -2.3786     1.3954     0.0332 C.2     
   6 C6            -1.1848     2.0319     0.0299 C.2     
   7 O7             1.0656    -0.6000    -0.0121 O.2     
   8 C8            -1.2158    -2.1595     0.0021 C.1     
   9 N9            -1.2152    -3.2954    -0.0044 N.1     
  10 C10            1.2511     2.0766     0.0013 C.3     
  11 C11            1.6721     2.3362    -1.4223 C.ar    
  12 C12            1.2640     3.4916    -2.0629 C.ar    
  13 C13            1.6485     3.7319    -3.3678 C.ar    
  14 C14            2.4449     2.8128    -4.0354 C.ar    
  15 C15            2.8531     1.6544    -3.3904 C.ar    
  16 C16            2.4705     1.4214    -2.0836 C.ar    
  17 C17           -3.7229    -0.7230     0.0347 C.ar    
  18 C18           -4.5720    -0.6188     1.1376 C.ar    
  19 C19           -5.7803    -1.2846     1.1392 C.ar    
  20 C20           -6.1508    -2.0546     0.0510 C.ar    
  21 C21           -5.3137    -2.1620    -1.0455 C.ar    
  22 C22           -4.1055    -1.4964    -1.0624 C.ar    
  23 C23           -7.4718    -2.7799     0.0602 C.3     
  24 N24           -8.5109    -1.9121    -0.5100 N.3     
  25 C25           -9.7544    -2.6594    -0.7370 C.3     
  26 C26          -10.8537    -1.6968    -1.1923 C.3     
  27 C27          -10.4126    -0.9995    -2.4821 C.3     
  28 C28           -9.0906    -0.2687    -2.2316 C.3     
  29 C29           -8.0425    -1.2726    -1.7462 C.3     
  30 O30            2.8242     3.0467    -5.3193 O.3     
  31 C31            3.6441     2.0571    -5.9441 C.3     
  32 F32            2.9626     0.8355    -5.9701 F       
  33 F33            3.9392     2.4543    -7.2527 F       
  34 F34            4.8331     1.9124    -5.2213 F       
  35 H35           -3.2952     1.9665     0.0453 H       
  36 H36           -1.1612     3.1116     0.0354 H       
  37 H37            1.1240     3.0260     0.5214 H       
  38 H38            2.0167     1.4862     0.5046 H       
  39 H39            0.6437     4.2065    -1.5428 H       
  40 H40            1.3292     4.6343    -3.8679 H       
  41 H41            3.4731     0.9374    -3.9081 H       
  42 H42            2.7880     0.5197    -1.5810 H       
  43 H43           -4.2836    -0.0187     1.9879 H       
  44 H44           -6.4382    -1.2049     1.9920 H       
  45 H45           -5.6088    -2.7647    -1.8917 H       
  46 H46           -3.4531    -1.5807    -1.9190 H       
  47 H47           -7.3911    -3.6894    -0.5352 H       
  48 H48           -7.7369    -3.0389     1.0852 H       
  49 H49           -9.5898    -3.4130    -1.5070 H       
  50 H50          -10.0593    -3.1470     0.1890 H       
  51 H51          -11.7723    -2.2541    -1.3757 H       
  52 H52          -11.0284    -0.9510    -0.4168 H       
  53 H53          -10.2754    -1.7414    -3.2687 H       
  54 H54          -11.1739    -0.2812    -2.7864 H       
  55 H55           -8.7496     0.1943    -3.1575 H       
  56 H56           -9.2376     0.4996    -1.4725 H       
  57 H57           -7.1039    -0.7531    -1.5532 H       
  58 H58           -7.8859    -2.0328    -2.5115 H       
@<TRIPOS>BOND
   1    1    2 am
   2    1   10 1
   3    1    6 1
   4    2    3 1
   5    2    7 2
   6    3    4 2
   7    3    8 1
   8    4    5 1
   9    4   17 1
  10    5    6 2
  11    5   35 1
  12    6   36 1
  13    8    9 3
  14   10   11 1
  15   10   37 1
  16   10   38 1
  17   11   12 ar
  18   11   16 ar
  19   12   13 ar
  20   12   39 1
  21   13   14 ar
  22   13   40 1
  23   14   15 ar
  24   14   30 1
  25   15   16 ar
  26   15   41 1
  27   16   42 1
  28   17   18 ar
  29   17   22 ar
  30   18   19 ar
  31   18   43 1
  32   19   20 ar
  33   19   44 1
  34   20   21 ar
  35   20   23 1
  36   21   22 ar
  37   21   45 1
  38   22   46 1
  39   23   24 1
  40   23   47 1
  41   23   48 1
  42   24   25 1
  43   24   29 1
  44   25   26 1
  45   25   49 1
  46   25   50 1
  47   26   27 1
  48   26   51 1
  49   26   52 1
  50   27   28 1
  51   27   53 1
  52   27   54 1
  53   28   29 1
  54   28   55 1
  55   28   56 1
  56   29   57 1
  57   29   58 1
  58   30   31 1
  59   31   32 1
  60   31   33 1
  61   31   34 1

#	End of record

