#	Name: ASD03330499
#	Creating user name:	WinNT
#	Creation time:	15. 06. 2019 20:37

#	Modifying user name:	WinNT
#	Modification time:	15. 06. 2019 20:37

#	Program:	/corina/corina34_cracker 3.40 0067  02.08.2006

@<TRIPOS>MOLECULE
ASD03330499
  69   71    0    0    0
SMALL
NO_CHARGES


@<TRIPOS>ATOM
   1 C1            -0.2649     2.0914    -0.6952 C.3     
   2 N2            -0.1032     0.6542    -0.4343 N.3     
   3 C3             0.3500    -0.0592    -1.6421 C.3     
   4 C4             1.5379     0.6807    -2.2009 C.2     
   5 N5             1.8736     1.9530    -1.8405 N.pl3   
   6 C6             1.1112     2.7461    -0.8723 C.3     
   7 C7             2.4540     0.2669    -3.1118 C.2     
   8 N8             3.3348     1.2758    -3.2975 N.2     
   9 C9             2.9923     2.2926    -2.5354 C.2     
  10 C10            3.7006     3.5810    -2.4500 C.2     
  11 C11            2.4843    -1.0471    -3.7786 C.2     
  12 O12            1.6319    -1.8770    -3.5260 O.2     
  13 C13            3.4867    -2.6351    -5.3312 C.3     
  14 N14            3.4566    -1.3290    -4.6683 N.am    
  15 C15           -1.3467     0.0706     0.0864 C.3     
  16 C16            4.2135    -3.6432    -4.4388 C.3     
  17 C17            4.2120    -2.5142    -6.6466 C.2     
  18 O18            4.8060    -1.4927    -6.9199 O.2     
  19 C19            3.4090    -3.8616    -3.1559 C.3     
  20 C20            4.3574    -4.9723    -5.1830 C.3     
  21 C21            5.6010    -3.1040    -4.0852 C.3     
  22 N22            4.2006    -3.5412    -7.5193 N.am    
  23 C23            4.9717    -3.4551    -8.7619 C.3     
  24 C24            4.7878     3.7913    -3.1839 C.2     
  25 C25            5.5126     5.1097    -3.0965 C.3     
  26 N26            6.9234     4.8717    -2.7633 N.3     
  27 C27            7.7116     6.1031    -2.9009 C.3     
  28 C28            7.4823     3.7891    -3.5831 C.3     
  29 C29            8.9029     3.4713    -3.1109 C.3     
  30 C30            9.7691     4.7281    -3.2325 C.3     
  31 C31            9.1390     5.8544    -2.4084 C.3     
  32 H32           -0.8520     2.2310    -1.6029 H       
  33 H33           -0.7819     2.5561     0.1444 H       
  34 H34            0.6391    -1.0774    -1.3819 H       
  35 H35           -0.4516    -0.0802    -2.3803 H       
  36 H36            0.9894     3.7633    -1.2446 H       
  37 H37            1.6358     2.7638     0.0830 H       
  38 H38            3.3362     4.3549    -1.7906 H       
  39 H39            2.4668    -2.9761    -5.5086 H       
  40 H40            4.1365    -0.6671    -4.8697 H       
  41 H41           -2.1605     0.2671    -0.6117 H       
  42 H42           -1.2212    -1.0057     0.2045 H       
  43 H43           -1.5810     0.5172     1.0526 H       
  44 H44            2.4206    -4.2458    -3.4078 H       
  45 H45            3.9268    -4.5799    -2.5201 H       
  46 H46            3.3065    -2.9148    -2.6256 H       
  47 H47            4.8322    -4.7984    -6.1486 H       
  48 H48            4.9708    -5.6540    -4.5940 H       
  49 H49            3.3715    -5.4112    -5.3367 H       
  50 H50            5.4985    -2.1572    -3.5550 H       
  51 H51            6.1188    -3.8222    -3.4494 H       
  52 H52            6.1741    -2.9484    -4.9992 H       
  53 H53            3.6818    -4.3374    -7.3246 H       
  54 H54            4.6208    -2.6066    -9.3493 H       
  55 H55            6.0275    -3.3219    -8.5259 H       
  56 H56            4.8406    -4.3729    -9.3352 H       
  57 H57            5.1522     3.0175    -3.8433 H       
  58 H58            5.4475     5.6244    -4.0550 H       
  59 H59            5.0551     5.7251    -2.3218 H       
  60 H60            7.7360     6.4035    -3.9484 H       
  61 H61            7.2551     6.8947    -2.3067 H       
  62 H62            6.8594     2.9001    -3.4843 H       
  63 H63            7.5078     4.1004    -4.6274 H       
  64 H64            8.8766     3.1467    -2.0707 H       
  65 H65            9.3232     2.6785    -3.7296 H       
  66 H66           10.7705     4.5181    -2.8567 H       
  67 H67            9.8274     5.0306    -4.2780 H       
  68 H68            9.7280     6.7641    -2.5252 H       
  69 H69            9.1164     5.5672    -1.3571 H       
@<TRIPOS>BOND
   1    1    2 1
   2    1    6 1
   3    1   32 1
   4    1   33 1
   5    2    3 1
   6    2   15 1
   7    3    4 1
   8    3   34 1
   9    3   35 1
  10    4    5 1
  11    4    7 2
  12    5    6 1
  13    5    9 1
  14    6   36 1
  15    6   37 1
  16    7    8 1
  17    7   11 1
  18    8    9 2
  19    9   10 1
  20   10   24 2
  21   10   38 1
  22   11   12 2
  23   11   14 am
  24   13   14 1
  25   13   16 1
  26   13   17 1
  27   13   39 1
  28   14   40 1
  29   15   41 1
  30   15   42 1
  31   15   43 1
  32   16   19 1
  33   16   20 1
  34   16   21 1
  35   17   18 2
  36   17   22 am
  37   19   44 1
  38   19   45 1
  39   19   46 1
  40   20   47 1
  41   20   48 1
  42   20   49 1
  43   21   50 1
  44   21   51 1
  45   21   52 1
  46   22   23 1
  47   22   53 1
  48   23   54 1
  49   23   55 1
  50   23   56 1
  51   24   25 1
  52   24   57 1
  53   25   26 1
  54   25   58 1
  55   25   59 1
  56   26   27 1
  57   26   28 1
  58   27   31 1
  59   27   60 1
  60   27   61 1
  61   28   29 1
  62   28   62 1
  63   28   63 1
  64   29   30 1
  65   29   64 1
  66   29   65 1
  67   30   31 1
  68   30   66 1
  69   30   67 1
  70   31   68 1
  71   31   69 1

#	End of record

