#	Name: ASD01209126
#	Creating user name:	WinNT
#	Creation time:	15. 06. 2019 19:11

#	Modifying user name:	WinNT
#	Modification time:	15. 06. 2019 19:11

#	Program:	/corina/corina34_cracker 3.40 0067  02.08.2006

@<TRIPOS>MOLECULE
ASD01209126
  74   77    0    0    0
SMALL
NO_CHARGES


@<TRIPOS>ATOM
   1 C1             1.4890     3.5175     1.1802 C.ar    
   2 C2             1.8448     2.1787     1.2544 C.ar    
   3 C3             0.8843     1.1911     1.0873 C.ar    
   4 C4            -0.4345     1.5387     0.8455 C.ar    
   5 C5            -0.7966     2.8843     0.7700 C.ar    
   6 C6             0.1713     3.8740     0.9439 C.ar    
   7 O7             2.4335     4.4808     1.3450 O.3     
   8 O8             1.2382    -0.1189     1.1605 O.3     
   9 C9             1.1996    -0.8549     0.0189 C.ar    
  10 C10            1.4840    -2.2125     0.0573 C.ar    
  11 C11           -2.2028     3.2601     0.5121 C.2     
  12 N12           -2.5505     4.5602     0.4396 N.am    
  13 O13           -3.0456     2.3964     0.3654 O.2     
  14 C14           -3.8718     4.9133     0.1973 C.2     
  15 S15           -5.1557     3.8068    -0.0271 S.3     
  16 C16           -6.2838     5.1430    -0.2413 C.2     
  17 C17           -5.6008     6.2837    -0.1260 C.2     
  18 N18           -4.3120     6.1298     0.1138 N.2     
  19 P19           -6.8180     8.1967     1.3856 P.3     
  20 O20           -5.6833     8.1733     2.3355 O.2     
  21 C21            1.4442    -2.9584    -1.1047 C.ar    
  22 C22            1.1212    -2.3534    -2.3053 C.ar    
  23 C23            0.8378    -1.0006    -2.3464 C.ar    
  24 C24            0.8702    -0.2514    -1.1863 C.ar    
  25 S25            1.0712    -3.3077    -3.7857 S.o2    
  26 O26            1.3333    -2.3671    -4.8180 O.2     
  27 O27            1.9598    -4.3882    -3.5362 O.2     
  28 C28           -0.6402    -3.9008    -3.8843 C.3     
  29 C29           -6.2495     7.6379    -0.2539 C.3     
  30 C30            3.3844     4.6095     0.3888 C.ar    
  31 N31            4.2592     5.5984     0.4773 N.ar    
  32 C32            5.2006     5.7530    -0.4392 C.ar    
  33 C33            5.2629     4.8637    -1.5005 C.ar    
  34 C34            4.3308     3.8398    -1.5615 C.ar    
  35 N35            3.4191     3.7400    -0.6082 N.ar    
  36 O36           -7.9803     7.2158     1.9137 O.3     
  37 C37           -8.5271     7.2958     3.2315 C.3     
  38 C38          -10.0476     7.4430     3.1447 C.3     
  39 C39           -8.1815     6.0219     4.0052 C.3     
  40 O40           -7.3919     9.6966     1.2721 O.3     
  41 C41           -7.7667    10.4748     2.4105 C.3     
  42 C42           -6.8349    11.6822     2.5320 C.3     
  43 C43           -9.2089    10.9581     2.2456 C.3     
  44 H44            2.8723     1.9043     1.4425 H       
  45 H45           -1.1813     0.7695     0.7152 H       
  46 H46           -0.1048     4.9165     0.8863 H       
  47 H47            1.7367    -2.6855     0.9947 H       
  48 H48           -1.8780     5.2493     0.5567 H       
  49 H49           -7.3429     5.0545    -0.4330 H       
  50 H50            1.6658    -4.0150    -1.0754 H       
  51 H51            0.5865    -0.5303    -3.2856 H       
  52 H52            0.6488     0.8052    -1.2189 H       
  53 H53           -1.3183    -3.0484    -3.9266 H       
  54 H54           -0.7633    -4.5078    -4.7813 H       
  55 H55           -0.8675    -4.5026    -3.0044 H       
  56 H56           -5.5267     8.3510    -0.6504 H       
  57 H57           -7.1016     7.5701    -0.9302 H       
  58 H58            5.9115     6.5623    -0.3617 H       
  59 H59            6.0208     4.9665    -2.2630 H       
  60 H60            4.3510     3.1299    -2.3752 H       
  61 H61           -8.1073     8.1594     3.7473 H       
  62 H62          -10.4768     6.5359     2.7194 H       
  63 H63          -10.4546     7.6042     4.1429 H       
  64 H64          -10.2945     8.2940     2.5099 H       
  65 H65           -8.5986     6.0829     5.0104 H       
  66 H66           -8.6013     5.1583     3.4894 H       
  67 H67           -7.0983     5.9170     4.0671 H       
  68 H68           -7.6888     9.8638     3.3098 H       
  69 H69           -5.8074    11.3379     2.6495 H       
  70 H70           -6.9127    12.2932     1.6327 H       
  71 H71           -7.1207    12.2758     3.4004 H       
  72 H72           -9.8815    10.1004     2.2432 H       
  73 H73           -9.4671    11.6200     3.0722 H       
  74 H74           -9.3056    11.4983     1.3038 H       
@<TRIPOS>BOND
   1    1    2 ar
   2    1    7 1
   3    1    6 ar
   4    2    3 ar
   5    2   44 1
   6    3    4 ar
   7    3    8 1
   8    4    5 ar
   9    4   45 1
  10    5    6 ar
  11    5   11 1
  12    6   46 1
  13    7   30 1
  14    8    9 1
  15    9   10 ar
  16    9   24 ar
  17   10   21 ar
  18   10   47 1
  19   11   12 am
  20   11   13 2
  21   12   14 1
  22   12   48 1
  23   14   15 1
  24   14   18 2
  25   15   16 1
  26   16   17 2
  27   16   49 1
  28   17   18 1
  29   17   29 1
  30   19   20 2
  31   19   36 1
  32   19   40 1
  33   19   29 1
  34   21   22 ar
  35   21   50 1
  36   22   23 ar
  37   22   25 1
  38   23   24 ar
  39   23   51 1
  40   24   52 1
  41   25   26 2
  42   25   27 2
  43   25   28 1
  44   28   53 1
  45   28   54 1
  46   28   55 1
  47   29   56 1
  48   29   57 1
  49   30   31 ar
  50   30   35 ar
  51   31   32 ar
  52   32   33 ar
  53   32   58 1
  54   33   34 ar
  55   33   59 1
  56   34   35 ar
  57   34   60 1
  58   36   37 1
  59   37   38 1
  60   37   39 1
  61   37   61 1
  62   38   62 1
  63   38   63 1
  64   38   64 1
  65   39   65 1
  66   39   66 1
  67   39   67 1
  68   40   41 1
  69   41   42 1
  70   41   43 1
  71   41   68 1
  72   42   69 1
  73   42   70 1
  74   42   71 1
  75   43   72 1
  76   43   73 1
  77   43   74 1

#	End of record

