#	Name: ASD01120245
#	Creating user name:	WinNT
#	Creation time:	15. 06. 2019 18:59

#	Modifying user name:	WinNT
#	Modification time:	15. 06. 2019 18:59

#	Program:	/corina/corina34_cracker 3.40 0067  02.08.2006

@<TRIPOS>MOLECULE
ASD01120245
  50   52    0    0    0
SMALL
NO_CHARGES


@<TRIPOS>ATOM
   1 C1            -0.0671    -1.3975     3.3886 C.ar    
   2 C2            -0.6922    -2.5580     3.8083 C.ar    
   3 C3            -1.9866    -2.8297     3.4064 C.ar    
   4 C4            -2.6563    -1.9422     2.5853 C.ar    
   5 C5            -2.0321    -0.7821     2.1654 C.ar    
   6 C6            -0.7400    -0.5068     2.5708 C.ar    
   7 S7            -2.8867     0.3487     1.1187 S.o2    
   8 N8            -3.6788     1.4221     2.0999 N.am    
   9 C9            -2.9762     2.2595     2.8883 C.2     
  10 N10           -3.6209     3.1331     3.6868 N.am    
  11 O11           -1.8892     1.0927     0.4327 O.2     
  12 O12           -3.8918    -0.4028     0.4521 O.2     
  13 O13           -1.7608     2.2268     2.8792 O.2     
  14 C14            0.0952     2.5280    11.4753 C.ar    
  15 C15            1.4423     2.3153    11.7066 C.ar    
  16 C16            2.3170     3.3855    11.7287 C.ar    
  17 C17            1.8457     4.6680    11.5199 C.ar    
  18 C18            0.4994     4.8813    11.2887 C.ar    
  19 C19           -0.3752     3.8116    11.2611 C.ar    
  20 S20           -0.1004     6.5165    11.0226 S.o2    
  21 N21           -0.0264     6.8068     9.3939 N.am    
  22 C22           -0.7951     6.0942     8.5467 C.2     
  23 N23           -0.7349     6.3305     7.2212 N.am    
  24 O24           -1.4795     6.4987    11.3647 O.2     
  25 O25            0.8396     7.3925    11.6294 O.2     
  26 O26           -1.5431     5.2382     8.9783 O.2     
  27 Cl27          -1.0037     1.1845    11.4467 Cl      
  28 Cl28           1.5582    -1.0552     3.8934 Cl      
  29 C29           -1.4606     5.5261     6.3324 C.ar    
  30 C30           -2.7085     5.0388     6.6977 C.ar    
  31 C31           -3.4234     4.2463     5.8221 C.ar    
  32 C32           -2.8950     3.9372     4.5758 C.ar    
  33 C33           -1.6472     4.4244     4.2105 C.ar    
  34 C34           -0.9345     5.2213     5.0841 C.ar    
  35 H35           -0.1688    -3.2517     4.4496 H       
  36 H36           -2.4745    -3.7359     3.7338 H       
  37 H37           -3.6675    -2.1551     2.2713 H       
  38 H38           -0.2525     0.3993     2.2428 H       
  39 H39           -4.6484     1.4481     2.1071 H       
  40 H40           -4.5874     3.2052     3.6462 H       
  41 H41            1.8106     1.3133    11.8701 H       
  42 H42            3.3687     3.2196    11.9096 H       
  43 H43            2.5294     5.5039    11.5377 H       
  44 H44           -1.4268     3.9783    11.0805 H       
  45 H45            0.5703     7.4897     9.0496 H       
  46 H46           -0.1891     7.0573     6.8824 H       
  47 H47           -3.1196     5.2796     7.6669 H       
  48 H48           -4.3937     3.8667     6.1065 H       
  49 H49           -1.2360     4.1836     3.2413 H       
  50 H50            0.0361     5.6003     4.8000 H       
@<TRIPOS>BOND
   1    1    2 ar
   2    1   28 1
   3    1    6 ar
   4    2    3 ar
   5    2   35 1
   6    3    4 ar
   7    3   36 1
   8    4    5 ar
   9    4   37 1
  10    5    6 ar
  11    5    7 1
  12    6   38 1
  13    7    8 am
  14    7   11 2
  15    7   12 2
  16    8    9 am
  17    8   39 1
  18    9   10 am
  19    9   13 2
  20   10   32 1
  21   10   40 1
  22   14   15 ar
  23   14   27 1
  24   14   19 ar
  25   15   16 ar
  26   15   41 1
  27   16   17 ar
  28   16   42 1
  29   17   18 ar
  30   17   43 1
  31   18   19 ar
  32   18   20 1
  33   19   44 1
  34   20   21 am
  35   20   24 2
  36   20   25 2
  37   21   22 am
  38   21   45 1
  39   22   23 am
  40   22   26 2
  41   23   29 1
  42   23   46 1
  43   29   30 ar
  44   29   34 ar
  45   30   31 ar
  46   30   47 1
  47   31   32 ar
  48   31   48 1
  49   32   33 ar
  50   33   34 ar
  51   33   49 1
  52   34   50 1

#	End of record

