#	Name: ASD05313088
#	Creating user name:	WinNT
#	Creation time:	15. 06. 2019 20:58

#	Modifying user name:	WinNT
#	Modification time:	15. 06. 2019 20:58

#	Program:	/corina/corina34_cracker 3.40 0067  02.08.2006

@<TRIPOS>MOLECULE
ASD05313088
  38   41    0    0    0
SMALL
NO_CHARGES


@<TRIPOS>ATOM
   1 C1            -0.0726     0.8205     1.0203 C.2     
   2 C2             0.1130    -0.6164     0.5944 C.3     
   3 N3             0.9312     1.7336     1.0464 N.pl3   
   4 N4             1.4566    -0.7170    -0.0063 N.am    
   5 C5             2.5709    -0.0356     0.6699 C.3     
   6 C6             2.3178     1.4768     0.6612 C.3     
   7 N7            -0.9033     2.6446     1.7022 N.2     
   8 N8            -1.1569     1.4126     1.4214 N.2     
   9 C9             0.3731     2.8940     1.4896 C.2     
  10 C10            1.0661     4.1838     1.6954 C.ar    
  11 C11            0.3486     5.2899     2.1585 C.ar    
  12 C12            1.0125     6.4916     2.3462 C.ar    
  13 C13            2.3720     6.5485     2.0649 C.ar    
  14 C14            3.0198     5.4116     1.6086 C.ar    
  15 N15            2.3663     4.2803     1.4439 N.ar    
  16 F16            3.0557     7.7013     2.2343 F       
  17 F17           -0.9733     5.1892     2.4189 F       
  18 C18            1.6574    -1.4139    -1.1423 C.2     
  19 O19            2.7496    -1.4044    -1.6763 O.2     
  20 C20            0.5510    -2.1890    -1.7382 C.ar    
  21 C21            0.3198    -2.1364    -3.1161 C.ar    
  22 C22           -0.7156    -2.8635    -3.6669 C.ar    
  23 C23           -1.5248    -3.6444    -2.8566 C.ar    
  24 C24           -1.2997    -3.6995    -1.4893 C.ar    
  25 C25           -0.2650    -2.9821    -0.9286 C.ar    
  26 F26           -2.5372    -4.3544    -3.4009 F       
  27 Cl27           1.3325    -1.1581    -4.1315 Cl      
  28 H28            0.0429    -1.2734     1.4613 H       
  29 H29           -0.6445    -0.8872    -0.1411 H       
  30 H30            2.6417    -0.3871     1.6993 H       
  31 H31            3.5018    -0.2520     0.1458 H       
  32 H32            2.4968     1.8705    -0.3393 H       
  33 H33            2.9886     1.9622     1.3700 H       
  34 H34            0.4852     7.3641     2.7027 H       
  35 H35            4.0764     5.4529     1.3888 H       
  36 H36           -0.8960    -2.8238    -4.7310 H       
  37 H37           -1.9340    -4.3092    -0.8630 H       
  38 H38           -0.0882    -3.0300     0.1358 H       
@<TRIPOS>BOND
   1    1    2 1
   2    1    3 1
   3    1    8 2
   4    2    4 1
   5    2   28 1
   6    2   29 1
   7    3    6 1
   8    3    9 1
   9    4    5 1
  10    4   18 am
  11    5    6 1
  12    5   30 1
  13    5   31 1
  14    6   32 1
  15    6   33 1
  16    7    8 1
  17    7    9 2
  18    9   10 1
  19   10   11 ar
  20   10   15 ar
  21   11   12 ar
  22   11   17 1
  23   12   13 ar
  24   12   34 1
  25   13   14 ar
  26   13   16 1
  27   14   15 ar
  28   14   35 1
  29   18   19 2
  30   18   20 1
  31   20   21 ar
  32   20   25 ar
  33   21   22 ar
  34   21   27 1
  35   22   23 ar
  36   22   36 1
  37   23   24 ar
  38   23   26 1
  39   24   25 ar
  40   24   37 1
  41   25   38 1

#	End of record

