#	Name: ASD01941049
#	Creating user name:	WinNT
#	Creation time:	15. 06. 2019 20:13

#	Modifying user name:	WinNT
#	Modification time:	15. 06. 2019 20:13

#	Program:	/corina/corina34_cracker 3.40 0067  02.08.2006

@<TRIPOS>MOLECULE
ASD01941049
  45   47    0    0    0
SMALL
NO_CHARGES


@<TRIPOS>ATOM
   1 N1            -0.0128     1.4155    -0.4158 N.am    
   2 C2             0.0281     0.0623    -0.4240 C.2     
   3 N3            -1.0424    -0.6729    -0.2949 N.2     
   4 C4            -2.2533    -0.1181    -0.1454 C.2     
   5 C5            -2.3649     1.2793    -0.1284 C.2     
   6 C6            -1.1913     2.0620    -0.2644 C.2     
   7 N7            -3.3740    -0.8886    -0.0107 N.am    
   8 C8            -4.5906    -0.3386     0.1385 C.2     
   9 C9            -4.7767     1.0478     0.1646 C.2     
  10 C10           -3.6830     1.8894     0.0348 C.2     
  11 C11           -3.2457    -2.3478    -0.0300 C.3     
  12 O12           -5.5614    -1.0693     0.2543 O.2     
  13 O13           -1.2434     3.2792    -0.2545 O.2     
  14 N14           -3.8345     3.2634     0.0571 N.pl3   
  15 C15           -3.2889     4.0096     1.1051 C.ar    
  16 C16           -2.7081     3.3619     2.1885 C.ar    
  17 C17           -2.1689     4.0949     3.2242 C.ar    
  18 C18           -2.2061     5.4896     3.1847 C.ar    
  19 C19           -2.7901     6.1393     2.0952 C.ar    
  20 C20           -3.3231     5.4011     1.0590 C.ar    
  21 F21           -3.8884     6.0280     0.0042 F       
  22 C22            1.2258     2.1833    -0.5654 C.3     
  23 C23            1.4819     2.4540    -2.0494 C.3     
  24 C24            2.8363     3.1460    -2.2152 C.3     
  25 O25            3.1284     3.2941    -3.6062 O.3     
  26 O26            0.4498     3.2973    -2.5647 O.3     
  27 F27           -6.0161     1.5637     0.3161 F       
  28 C28           -1.6470     6.2528     4.2596 C.1     
  29 C29           -1.1886     6.8785     5.1408 C.1     
  30 H30            0.9833    -0.4276    -0.5424 H       
  31 H31           -3.0895    -2.7123     0.9853 H       
  32 H32           -4.1561    -2.7872    -0.4377 H       
  33 H33           -2.3961    -2.6297    -0.6519 H       
  34 H34           -4.3196     3.7095    -0.6546 H       
  35 H35           -2.6795     2.2827     2.2196 H       
  36 H36           -1.7181     3.5902     4.0659 H       
  37 H37           -2.8204     7.2184     2.0619 H       
  38 H38            1.1327     3.1304    -0.0341 H       
  39 H39            2.0582     1.6145    -0.1510 H       
  40 H40            1.4867     1.5106    -2.5953 H       
  41 H41            2.8024     4.1286    -1.7445 H       
  42 H42            3.6124     2.5436    -1.7431 H       
  43 H43            3.9745     3.7263    -3.7866 H       
  44 H44            0.3872     4.1561    -2.1246 H       
  45 H45           -0.7786     7.4381     5.9290 H       
@<TRIPOS>BOND
   1    1    2 1
   2    1   22 1
   3    1    6 am
   4    2    3 2
   5    2   30 1
   6    3    4 1
   7    4    5 2
   8    4    7 1
   9    5    6 1
  10    5   10 1
  11    6   13 2
  12    7    8 am
  13    7   11 1
  14    8    9 1
  15    8   12 2
  16    9   10 2
  17    9   27 1
  18   10   14 1
  19   11   31 1
  20   11   32 1
  21   11   33 1
  22   14   15 1
  23   14   34 1
  24   15   16 ar
  25   15   20 ar
  26   16   17 ar
  27   16   35 1
  28   17   18 ar
  29   17   36 1
  30   18   19 ar
  31   18   28 1
  32   19   20 ar
  33   19   37 1
  34   20   21 1
  35   22   23 1
  36   22   38 1
  37   22   39 1
  38   23   24 1
  39   23   26 1
  40   23   40 1
  41   24   25 1
  42   24   41 1
  43   24   42 1
  44   25   43 1
  45   26   44 1
  46   28   29 3
  47   29   45 1

#	End of record

