#	Name: ASD01880265
#	Creating user name:	WinNT
#	Creation time:	15. 06. 2019 19:40

#	Modifying user name:	WinNT
#	Modification time:	15. 06. 2019 19:40

#	Program:	/corina/corina34_cracker 3.40 0067  02.08.2006

@<TRIPOS>MOLECULE
ASD01880265
  45   46    0    0    0
SMALL
NO_CHARGES


@<TRIPOS>ATOM
   1 C1            -0.0167     1.3775     0.0096 C.ar    
   2 C2             0.0021    -0.0041     0.0020 C.ar    
   3 C3             1.2132    -0.6863    -0.0127 C.ar    
   4 C4             2.4064     0.0205    -0.0203 C.ar    
   5 C5             2.3861     1.4127    -0.0131 C.ar    
   6 C6             1.1672     2.0883     0.0021 C.ar    
   7 C7             3.6591     2.1753    -0.0206 C.2     
   8 C8             3.9814     2.9608    -1.0892 C.2     
   9 N9             5.1423     3.6610    -1.1047 N.am    
  10 C10            6.0012     3.5974    -0.0703 C.2     
  11 C11            5.7055     2.7990     1.0488 C.2     
  12 C12            4.5397     2.0960     1.0800 C.2     
  13 O13            7.0412     4.2351    -0.1041 O.2     
  14 C14            5.4665     4.4974    -2.2629 C.3     
  15 C15            4.9131     5.9071    -2.0448 C.3     
  16 N16            1.2284    -2.0831    -0.0194 N.am    
  17 S17            0.2137    -2.9173    -1.0279 S.o2    
  18 C18            0.7793    -2.4865    -2.6967 C.3     
  19 O19            0.4853    -4.2834    -0.7465 O.2     
  20 O20           -1.0682    -2.3582    -0.7760 O.2     
  21 C21            5.2517     6.7807    -3.2545 C.3     
  22 C22            4.5232     6.2464    -4.4893 C.3     
  23 C23            4.8088     8.2200    -2.9840 C.3     
  24 H24           -0.9601     1.9031     0.0169 H       
  25 H25           -0.9266    -0.5554     0.0079 H       
  26 H26            3.3485    -0.5074    -0.0314 H       
  27 H27            1.1485     3.1681     0.0074 H       
  28 H28            3.3061     3.0250    -1.9297 H       
  29 H29            6.3950     2.7474     1.8785 H       
  30 H30            4.2963     1.4781     1.9316 H       
  31 H31            6.5486     4.5466    -2.3841 H       
  32 H32            5.0198     4.0663    -3.1589 H       
  33 H33            3.8310     5.8579    -1.9237 H       
  34 H34            5.3598     6.3382    -1.1489 H       
  35 H35            1.8332    -2.5643     0.5666 H       
  36 H36            1.8179    -2.7940    -2.8190 H       
  37 H37            0.1598    -2.9977    -3.4336 H       
  38 H38            0.7002    -1.4089    -2.8403 H       
  39 H39            6.3274     6.7582    -3.4292 H       
  40 H40            4.8387     5.2210    -4.6819 H       
  41 H41            3.4475     6.2689    -4.3146 H       
  42 H42            4.7644     6.8688    -5.3510 H       
  43 H43            5.3278     8.6006    -2.1043 H       
  44 H44            5.0500     8.8423    -3.8457 H       
  45 H45            3.7332     8.2424    -2.8093 H       
@<TRIPOS>BOND
   1    1    2 ar
   2    1    6 ar
   3    1   24 1
   4    2    3 ar
   5    2   25 1
   6    3    4 ar
   7    3   16 1
   8    4    5 ar
   9    4   26 1
  10    5    6 ar
  11    5    7 1
  12    6   27 1
  13    7    8 2
  14    7   12 1
  15    8    9 1
  16    8   28 1
  17    9   10 am
  18    9   14 1
  19   10   11 1
  20   10   13 2
  21   11   12 2
  22   11   29 1
  23   12   30 1
  24   14   15 1
  25   14   31 1
  26   14   32 1
  27   15   21 1
  28   15   33 1
  29   15   34 1
  30   16   17 am
  31   16   35 1
  32   17   18 1
  33   17   19 2
  34   17   20 2
  35   18   36 1
  36   18   37 1
  37   18   38 1
  38   21   22 1
  39   21   23 1
  40   21   39 1
  41   22   40 1
  42   22   41 1
  43   22   42 1
  44   23   43 1
  45   23   44 1
  46   23   45 1

#	End of record

