#	Name: ASD01882135
#	Creating user name:	WinNT
#	Creation time:	15. 06. 2019 19:44

#	Modifying user name:	WinNT
#	Modification time:	15. 06. 2019 19:44

#	Program:	/corina/corina34_cracker 3.40 0067  02.08.2006

@<TRIPOS>MOLECULE
ASD01882135
  52   55    0    0    0
SMALL
NO_CHARGES


@<TRIPOS>ATOM
   1 C1            -0.4070     0.7384    -1.1126 C.2     
   2 C2             0.0021    -0.0041     0.0020 C.2     
   3 C3            -0.8269    -0.0436     1.1386 C.2     
   4 C4            -1.9990     0.6181     1.1664 C.2     
   5 N5            -2.4375     1.3532     0.1042 N.pl3   
   6 C6            -1.6865     1.4486    -1.0386 C.2     
   7 C7            -3.5720     2.0989    -0.1027 C.2     
   8 C8            -3.4873     2.6148    -1.3454 C.2     
   9 N9            -2.3371     2.2111    -1.8983 N.2     
  10 N10            1.2030    -0.6889    -0.0141 N.pl3   
  11 C11           -4.7001     2.3019     0.8756 C.3     
  12 C12            1.2305    -2.1543     0.0880 C.3     
  13 C13            2.1618    -2.5511     1.2378 C.3     
  14 C14            3.5346    -1.9102     1.0215 C.3     
  15 C15            3.3932    -0.3864     1.0183 C.3     
  16 C16            2.4756     0.0345    -0.1397 C.3     
  17 C17            4.4635    -2.3260     2.1329 C.ar    
  18 C18            3.9570    -2.6027     3.3891 C.ar    
  19 C19            4.8069    -2.9840     4.4113 C.ar    
  20 C20            6.1644    -3.0892     4.1792 C.ar    
  21 C21            6.6752    -2.8125     2.9192 C.ar    
  22 C22            5.8199    -2.4357     1.8941 C.ar    
  23 O23            4.0691    -2.3414    -0.2317 O.3     
  24 O24            8.0105    -2.9148     2.6885 O.3     
  25 C25            8.8304    -3.3127     3.7892 C.3     
  26 C26            0.4055     0.8066    -2.2898 C.1     
  27 N27            1.0500     0.8606    -3.2237 N.1     
  28 C28           -5.8074     1.2838     0.5957 C.3     
  29 F29           -5.2964    -0.0111     0.7354 F       
  30 F30           -6.8547     1.4723     1.5039 F       
  31 F31           -6.2834     1.4592    -0.7080 F       
  32 H32           -0.5180    -0.6142     2.0020 H       
  33 H33           -2.6099     0.5652     2.0554 H       
  34 H34           -4.2232     3.2506    -1.8152 H       
  35 H35           -4.3292     2.1653     1.8914 H       
  36 H36           -5.0982     3.3108     0.7668 H       
  37 H37            0.2253    -2.5257     0.2872 H       
  38 H38            1.6008    -2.5787    -0.8452 H       
  39 H39            1.7426    -2.2033     2.1820 H       
  40 H40            2.2666    -3.6358     1.2634 H       
  41 H41            2.9625    -0.0590     1.9645 H       
  42 H42            4.3745     0.0697     0.8875 H       
  43 H43            2.9498    -0.2117    -1.0897 H       
  44 H44            2.2912     1.1076    -0.0883 H       
  45 H45            2.8959    -2.5207     3.5727 H       
  46 H46            4.4088    -3.1993     5.3919 H       
  47 H47            6.8278    -3.3864     4.9780 H       
  48 H48            6.2150    -2.2197     0.9125 H       
  49 H49            4.9399    -1.9736    -0.4353 H       
  50 H50            8.7276    -2.5900     4.5986 H       
  51 H51            8.5173    -4.2965     4.1385 H       
  52 H52            9.8717    -3.3550     3.4699 H       
@<TRIPOS>BOND
   1    1    2 2
   2    1   26 1
   3    1    6 1
   4    2    3 1
   5    2   10 1
   6    3    4 2
   7    3   32 1
   8    4    5 1
   9    4   33 1
  10    5    6 1
  11    5    7 1
  12    6    9 2
  13    7    8 2
  14    7   11 1
  15    8    9 1
  16    8   34 1
  17   10   12 1
  18   10   16 1
  19   11   28 1
  20   11   35 1
  21   11   36 1
  22   12   13 1
  23   12   37 1
  24   12   38 1
  25   13   14 1
  26   13   39 1
  27   13   40 1
  28   14   15 1
  29   14   17 1
  30   14   23 1
  31   15   16 1
  32   15   41 1
  33   15   42 1
  34   16   43 1
  35   16   44 1
  36   17   18 ar
  37   17   22 ar
  38   18   19 ar
  39   18   45 1
  40   19   20 ar
  41   19   46 1
  42   20   21 ar
  43   20   47 1
  44   21   22 ar
  45   21   24 1
  46   22   48 1
  47   23   49 1
  48   24   25 1
  49   25   50 1
  50   25   51 1
  51   25   52 1
  52   26   27 3
  53   28   29 1
  54   28   30 1
  55   28   31 1

#	End of record

