#	Name: ASD05730078
#	Creating user name:	WinNT
#	Creation time:	15. 06. 2019 21:02

#	Modifying user name:	WinNT
#	Modification time:	15. 06. 2019 21:02

#	Program:	/corina/corina34_cracker 3.40 0067  02.08.2006

@<TRIPOS>MOLECULE
ASD05730078
  74   78    0    0    0
SMALL
NO_CHARGES


@<TRIPOS>ATOM
   1 N1             0.0238     1.3973    -0.0244 N.3     
   2 C2             0.0323    -0.0037    -0.0226 C.ar    
   3 C3             0.1090    -0.6987    -1.2211 C.ar    
   4 C4             0.1178    -2.0803    -1.2196 C.ar    
   5 C5             0.0500    -2.7744    -0.0193 C.ar    
   6 C6            -0.0268    -2.0802     1.1814 C.ar    
   7 C7            -0.0304    -0.6982     1.1810 C.ar    
   8 N8             0.0585    -4.1750    -0.0189 N.pl3   
   9 C9            -0.5588    -4.8696    -1.0407 C.ar    
  10 N10           -0.4407    -6.1882    -1.0779 N.ar    
  11 C11           -1.0204    -6.8906    -2.0447 C.ar    
  12 C12           -1.7633    -6.2039    -3.0296 C.ar    
  13 C13           -1.8584    -4.8066    -2.9459 C.ar    
  14 N14           -1.2537    -4.1910    -1.9472 N.ar    
  15 N15           -0.9029    -8.2568    -2.0913 N.am    
  16 C16           -1.4926    -8.9640    -3.0743 C.2     
  17 C17           -2.2704    -8.2828    -4.1113 C.2     
  18 C18           -2.3939    -6.9197    -4.0726 C.2     
  19 C19           -0.1278    -8.9534    -1.0616 C.3     
  20 O20           -1.3779   -10.1764    -3.1011 O.2     
  21 C21           -2.9187    -9.0617    -5.1922 C.ar    
  22 C22            1.2463     1.9305    -0.6414 C.3     
  23 C23           -4.2981    -9.2653    -5.1772 C.ar    
  24 C24           -2.7611   -10.3135    -7.2351 C.ar    
  25 C25           -4.1305   -10.5179    -7.2121 C.ar    
  26 C26           -4.8968    -9.9915    -6.1863 C.ar    
  27 C27           -2.1523    -9.5890    -6.2314 C.ar    
  28 C28           -1.1734     1.9159    -0.7007 C.3     
  29 C29           -1.1848     3.4437    -0.6116 C.3     
  30 N30            0.0377     3.9770    -1.2287 N.3     
  31 C31            1.2349     3.4584    -0.5524 C.3     
  32 C32            2.4704     1.3854     0.0970 C.3     
  33 F33           -0.1046    -0.0222     2.3483 F       
  34 Cl34          -4.8902   -11.4300    -8.4788 Cl      
  35 S35           -5.2748    -8.5969    -3.8718 S.o2    
  36 C36           -4.7088    -9.4742    -2.3883 C.3     
  37 C37           -5.4914    -8.9761    -1.1716 C.3     
  38 O38           -5.0456    -9.6671    -0.0030 O.3     
  39 C39           -5.7164    -9.2742     1.1960 C.3     
  40 O40           -4.8965    -7.2283    -3.8165 O.2     
  41 O41           -6.6044    -8.9769    -4.1990 O.2     
  42 C42           -1.0466    -9.3256     0.1038 C.3     
  43 F43           -2.0684   -10.1628    -0.3569 F       
  44 F44           -0.3064    -9.9908     1.0871 F       
  45 F45           -1.6051    -8.1635     0.6468 F       
  46 H46            0.1614    -0.1596    -2.1554 H       
  47 H47            0.1771    -2.6206    -2.1529 H       
  48 H48           -0.0799    -2.6202     2.1152 H       
  49 H49            0.4980    -4.6571     0.6990 H       
  50 H50           -2.4176    -4.2470    -3.6810 H       
  51 H51           -2.9635    -6.3992    -4.8283 H       
  52 H52            0.3073    -9.8588    -1.4848 H       
  53 H53            0.6683    -8.3011    -0.7027 H       
  54 H54            1.2878     1.6272    -1.6875 H       
  55 H55           -2.1679   -10.7263    -8.0377 H       
  56 H56           -5.9651   -10.1497    -6.1757 H       
  57 H57           -1.0842    -9.4302    -6.2503 H       
  58 H58           -1.1596     1.6127    -1.7476 H       
  59 H59           -2.0654     1.5168    -0.2179 H       
  60 H60           -2.0569     3.8321    -1.1377 H       
  61 H61           -1.2260     3.7467     0.4346 H       
  62 H62            0.0631     3.7723    -2.2164 H       
  63 H63            1.2212     3.7616     0.4946 H       
  64 H64            2.1269     3.8575    -1.0352 H       
  65 H65            2.4773     0.2971     0.0350 H       
  66 H66            3.3770     1.7810    -0.3609 H       
  67 H67            2.4291     1.6895     1.1429 H       
  68 H68           -4.8744   -10.5442    -2.5136 H       
  69 H69           -3.6457    -9.2861    -2.2384 H       
  70 H70           -5.3258    -7.9060    -1.0463 H       
  71 H71           -6.5545    -9.1641    -1.3215 H       
  72 H72           -5.5555    -8.2103     1.3705 H       
  73 H73           -6.7842    -9.4684     1.0952 H       
  74 H74           -5.3212    -9.8441     2.0369 H       
@<TRIPOS>BOND
   1    1    2 1
   2    1   28 1
   3    1   22 1
   4    2    3 ar
   5    2    7 ar
   6    3    4 ar
   7    3   46 1
   8    4    5 ar
   9    4   47 1
  10    5    6 ar
  11    5    8 1
  12    6    7 ar
  13    6   48 1
  14    7   33 1
  15    8    9 1
  16    8   49 1
  17    9   10 ar
  18    9   14 ar
  19   10   11 ar
  20   11   12 ar
  21   11   15 1
  22   12   13 ar
  23   12   18 1
  24   13   14 ar
  25   13   50 1
  26   15   16 am
  27   15   19 1
  28   16   17 1
  29   16   20 2
  30   17   18 2
  31   17   21 1
  32   18   51 1
  33   19   42 1
  34   19   52 1
  35   19   53 1
  36   21   27 ar
  37   21   23 ar
  38   22   32 1
  39   22   31 1
  40   22   54 1
  41   23   35 1
  42   23   26 ar
  43   24   25 ar
  44   24   27 ar
  45   24   55 1
  46   25   26 ar
  47   25   34 1
  48   26   56 1
  49   27   57 1
  50   28   29 1
  51   28   58 1
  52   28   59 1
  53   29   30 1
  54   29   60 1
  55   29   61 1
  56   30   31 1
  57   30   62 1
  58   31   63 1
  59   31   64 1
  60   32   65 1
  61   32   66 1
  62   32   67 1
  63   35   36 1
  64   35   40 2
  65   35   41 2
  66   36   37 1
  67   36   68 1
  68   36   69 1
  69   37   38 1
  70   37   70 1
  71   37   71 1
  72   38   39 1
  73   39   72 1
  74   39   73 1
  75   39   74 1
  76   42   43 1
  77   42   44 1
  78   42   45 1

#	End of record

