#	Name: ASD08150376
#	Creating user name:	WinNT
#	Creation time:	15. 06. 2019 21:15

#	Modifying user name:	WinNT
#	Modification time:	15. 06. 2019 21:15

#	Program:	/corina/corina34_cracker 3.40 0067  02.08.2006

@<TRIPOS>MOLECULE
ASD08150376
  49   53    0    0    0
SMALL
NO_CHARGES


@<TRIPOS>ATOM
   1 N1            -3.8093    -8.1802    -7.5693 N.am    
   2 C2            -3.1622    -8.7627    -8.5973 C.2     
   3 C3            -1.8459    -9.2437    -8.4445 C.2     
   4 C4            -1.2097    -9.1257    -7.2514 C.2     
   5 C5            -1.8874    -8.5134    -6.1675 C.ar    
   6 C6            -1.2731    -8.3657    -4.9092 C.ar    
   7 N7            -1.9005    -7.8001    -3.9113 N.ar    
   8 C8            -3.1527    -7.3317    -4.0239 C.ar    
   9 C9            -3.8480    -7.4378    -5.2536 C.ar    
  10 C10           -3.1971    -8.0448    -6.3531 C.ar    
  11 C11           -5.1532    -6.9474    -5.3603 C.ar    
  12 C12           -5.7538    -6.3610    -4.2582 C.ar    
  13 C13           -5.0594    -6.2595    -3.0446 C.ar    
  14 C14           -3.7894    -6.7312    -2.9253 C.ar    
  15 O15           -3.7226    -8.8757    -9.6741 O.2     
  16 C16           -7.1378    -5.8377    -4.3628 C.ar    
  17 C17           -5.1139    -7.7054    -7.7480 C.ar    
  18 C18           -5.3294    -6.3813    -8.1081 C.ar    
  19 C19           -6.6176    -5.9161    -8.2841 C.ar    
  20 C20           -7.6927    -6.7670    -8.1017 C.ar    
  21 C21           -7.4815    -8.0855    -7.7432 C.ar    
  22 C22           -6.1952    -8.5585    -7.5712 C.ar    
  23 C23           -8.0890    -6.5055    -5.1290 C.ar    
  24 N24           -9.3199    -6.0438    -5.2245 N.ar    
  25 C25           -9.6998    -4.9393    -4.6034 C.ar    
  26 C26           -8.8066    -4.2178    -3.8196 C.ar    
  27 C27           -7.5075    -4.6688    -3.6881 C.ar    
  28 C28           -8.6558    -9.0090    -7.5450 C.3     
  29 O29          -10.9782    -4.5045    -4.7335 O.3     
  30 C30          -11.8495    -5.2873    -5.5521 C.3     
  31 H31           -1.3422    -9.7080    -9.2795 H       
  32 H32           -0.2015    -9.4935    -7.1295 H       
  33 H33           -0.2653    -8.7264    -4.7657 H       
  34 H34           -5.6888    -7.0248    -6.2949 H       
  35 H35           -5.5391    -5.7997    -2.1931 H       
  36 H36           -3.2693    -6.6447    -1.9828 H       
  37 H37           -4.4904    -5.7162    -8.2500 H       
  38 H38           -6.7859    -4.8867    -8.5642 H       
  39 H39           -8.6993    -6.4005    -8.2392 H       
  40 H40           -6.0307    -9.5896    -7.2951 H       
  41 H41           -7.8157    -7.4108    -5.6506 H       
  42 H42           -9.1257    -3.3171    -3.3163 H       
  43 H43           -6.7926    -4.1282    -3.0855 H       
  44 H44           -8.8993    -9.4951    -8.4897 H       
  45 H45           -8.4021    -9.7651    -6.8020 H       
  46 H46           -9.5155    -8.4346    -7.1998 H       
  47 H47          -11.4514    -5.3337    -6.5657 H       
  48 H48          -11.9231    -6.2953    -5.1441 H       
  49 H49          -12.8387    -4.8298    -5.5708 H       
@<TRIPOS>BOND
   1    1    2 am
   2    1   10 1
   3    1   17 1
   4    2    3 1
   5    2   15 2
   6    3    4 2
   7    3   31 1
   8    4    5 1
   9    4   32 1
  10    5    6 ar
  11    5   10 ar
  12    6    7 ar
  13    6   33 1
  14    7    8 ar
  15    8    9 ar
  16    8   14 ar
  17    9   10 ar
  18    9   11 ar
  19   11   12 ar
  20   11   34 1
  21   12   13 ar
  22   12   16 1
  23   13   14 ar
  24   13   35 1
  25   14   36 1
  26   16   23 ar
  27   16   27 ar
  28   17   18 ar
  29   17   22 ar
  30   18   19 ar
  31   18   37 1
  32   19   20 ar
  33   19   38 1
  34   20   21 ar
  35   20   39 1
  36   21   22 ar
  37   21   28 1
  38   22   40 1
  39   23   24 ar
  40   23   41 1
  41   24   25 ar
  42   25   26 ar
  43   25   29 1
  44   26   27 ar
  45   26   42 1
  46   27   43 1
  47   28   44 1
  48   28   45 1
  49   28   46 1
  50   29   30 1
  51   30   47 1
  52   30   48 1
  53   30   49 1

#	End of record

