#	Name: ASD01411147
#	Creating user name:	WinNT
#	Creation time:	15. 06. 2019 19:19

#	Modifying user name:	WinNT
#	Modification time:	15. 06. 2019 19:19

#	Program:	/corina/corina34_cracker 3.40 0067  02.08.2006

@<TRIPOS>MOLECULE
ASD01411147
  93   98    0    0    0
SMALL
NO_CHARGES


@<TRIPOS>ATOM
   1 C1             0.1305     1.3414    -0.4465 C.ar    
   2 C2            -1.0953     1.9681    -0.6364 C.ar    
   3 C3            -2.2711     1.2618    -0.4826 C.ar    
   4 C4            -2.2368    -0.0819    -0.1371 C.ar    
   5 C5            -1.0023    -0.7207     0.0556 C.ar    
   6 C6             0.1823     0.0017    -0.1071 C.ar    
   7 O7             1.2830     2.0464    -0.6005 O.3     
   8 C8             1.5549     3.0263     0.2974 C.ar    
   9 N9            -3.4248    -0.7946     0.0185 N.am    
  10 C10           -3.9449    -0.9773     1.2484 C.2     
  11 C11           -5.1686    -1.8382     1.4288 C.3     
  12 O12           -3.4281    -0.4489     2.2100 O.2     
  13 C13           -5.4294    -2.0474     2.9218 C.3     
  14 C14           -6.3763    -1.1477     0.7919 C.3     
  15 C15           -7.6187    -2.0217     0.9750 C.3     
  16 C16           -7.8795    -2.2309     2.4680 C.3     
  17 C17           -6.6718    -2.9214     3.1049 C.3     
  18 C18           -9.1219    -3.1049     2.6511 C.3     
  19 N19            0.7646     3.1926     1.3453 N.ar    
  20 C20           -4.1079    -1.3449    -1.1548 C.3     
  21 C21           -3.1584    -2.2807    -1.9055 C.3     
  22 C22            2.6637     3.8418     0.1109 C.ar    
  23 C23            2.9303     4.8376     1.0346 C.ar    
  24 C24            2.0740     4.9828     2.1172 C.ar    
  25 C25            0.9929     4.1326     2.2423 C.ar    
  26 C26            2.3248     6.0528     3.1483 C.3     
  27 N27            1.6323     7.2863     2.7523 N.3     
  28 C28            1.6540     8.2741     3.8388 C.3     
  29 C29           -4.5345    -0.2026    -2.0790 C.3     
  30 C30           -3.8718    -2.8555    -3.1309 C.3     
  31 C31           -4.2984    -1.7132    -4.0551 C.3     
  32 C32           -5.2479    -0.7773    -3.3044 C.3     
  33 O33           -4.9647    -2.2500    -5.1996 O.3     
  34 C34           -4.8126    -1.4633    -6.3828 C.3     
  35 C35            1.0551     9.5924     3.3435 C.3     
  36 C36           -0.3832     9.3506     2.8772 C.3     
  37 C37           -0.3829     8.2830     1.7795 C.3     
  38 C38            0.2578     7.0027     2.3201 C.3     
  39 F39            1.0576    10.5269     4.3847 F       
  40 F40            1.8166    10.0795     2.2758 F       
  41 C41           -4.8344    -2.1958    -7.7259 C.3     
  42 C42           -6.0261    -1.3332    -7.3055 C.3     
  43 C43           -0.9556    -2.1473     0.4232 C.2     
  44 O44           -1.9853    -2.7481     0.6584 O.2     
  45 O45            0.2290    -2.7853     0.4984 O.3     
  46 C46            3.5648     3.6447    -1.0809 C.3     
  47 F47            4.6014     4.5833    -1.0420 F       
  48 F48            4.1031     2.3538    -1.0501 F       
  49 F49            2.8262     3.8140    -2.2569 F       
  50 H50           -1.1280     3.0135    -0.9054 H       
  51 H51           -3.2199     1.7560    -0.6312 H       
  52 H52            1.1362    -0.4831     0.0392 H       
  53 H53           -5.0075    -2.8037     0.9492 H       
  54 H54           -4.5690    -2.5394     3.3755 H       
  55 H55           -5.5905    -1.0819     3.4013 H       
  56 H56           -6.5374    -0.1821     1.2714 H       
  57 H57           -6.1905    -0.9986    -0.2717 H       
  58 H58           -8.4790    -1.5297     0.5213 H       
  59 H59           -7.4576    -2.9872     0.4955 H       
  60 H60           -8.0406    -1.2654     2.9476 H       
  61 H61           -6.5107    -3.8869     2.6254 H       
  62 H62           -6.8576    -3.0705     4.1685 H       
  63 H63           -8.9608    -4.0704     2.1716 H       
  64 H64           -9.3077    -3.2540     3.7148 H       
  65 H65           -9.9822    -2.6130     2.1975 H       
  66 H66           -4.9887    -1.9015    -0.8346 H       
  67 H67           -2.2775    -1.7242    -2.2257 H       
  68 H68           -2.8545    -3.0945    -1.2471 H       
  69 H69            3.7854     5.4866     0.9158 H       
  70 H70            0.3234     4.2417     3.0826 H       
  71 H71            1.9493     5.7200     4.1160 H       
  72 H72            3.3954     6.2443     3.2203 H       
  73 H73            1.0684     7.9022     4.6795 H       
  74 H74            2.6829     8.4399     4.1582 H       
  75 H75           -5.2109     0.4641    -1.5442 H       
  76 H76           -3.6537     0.3539    -2.3992 H       
  77 H77           -3.1953    -3.5222    -3.6657 H       
  78 H78           -4.7526    -3.4120    -2.8107 H       
  79 H79           -3.4175    -1.1566    -4.3752 H       
  80 H80           -6.1287    -1.3339    -2.9842 H       
  81 H81           -5.5518     0.0365    -3.9628 H       
  82 H82           -4.1544    -0.5992    -6.2915 H       
  83 H83           -0.9861     9.0081     3.7182 H       
  84 H84           -0.7992    10.2779     2.4833 H       
  85 H85           -1.4082     8.0757     1.4732 H       
  86 H86            0.1879     8.6420     0.9230 H       
  87 H87            0.2726     6.2451     1.5365 H       
  88 H88           -0.3213     6.6368     3.1679 H       
  89 H89           -4.1910    -1.8134    -8.5182 H       
  90 H90           -4.9648    -3.2778    -7.7069 H       
  91 H91           -6.9405    -1.8476    -7.0100 H       
  92 H92           -6.1666    -0.3833    -7.8213 H       
  93 H93            0.2091    -3.7206     0.7432 H       
@<TRIPOS>BOND
   1    1    2 ar
   2    1    7 1
   3    1    6 ar
   4    2    3 ar
   5    2   50 1
   6    3    4 ar
   7    3   51 1
   8    4    5 ar
   9    4    9 1
  10    5    6 ar
  11    5   43 1
  12    6   52 1
  13    7    8 1
  14    8   22 ar
  15    8   19 ar
  16    9   10 am
  17    9   20 1
  18   10   11 1
  19   10   12 2
  20   11   13 1
  21   11   14 1
  22   11   53 1
  23   13   17 1
  24   13   54 1
  25   13   55 1
  26   14   15 1
  27   14   56 1
  28   14   57 1
  29   15   16 1
  30   15   58 1
  31   15   59 1
  32   16   17 1
  33   16   18 1
  34   16   60 1
  35   17   61 1
  36   17   62 1
  37   18   63 1
  38   18   64 1
  39   18   65 1
  40   19   25 ar
  41   20   21 1
  42   20   29 1
  43   20   66 1
  44   21   30 1
  45   21   67 1
  46   21   68 1
  47   22   23 ar
  48   22   46 1
  49   23   24 ar
  50   23   69 1
  51   24   25 ar
  52   24   26 1
  53   25   70 1
  54   26   27 1
  55   26   71 1
  56   26   72 1
  57   27   28 1
  58   27   38 1
  59   28   35 1
  60   28   73 1
  61   28   74 1
  62   29   32 1
  63   29   75 1
  64   29   76 1
  65   30   31 1
  66   30   77 1
  67   30   78 1
  68   31   32 1
  69   31   33 1
  70   31   79 1
  71   32   80 1
  72   32   81 1
  73   33   34 1
  74   34   41 1
  75   34   42 1
  76   34   82 1
  77   35   36 1
  78   35   39 1
  79   35   40 1
  80   36   37 1
  81   36   83 1
  82   36   84 1
  83   37   38 1
  84   37   85 1
  85   37   86 1
  86   38   87 1
  87   38   88 1
  88   41   42 1
  89   41   89 1
  90   41   90 1
  91   42   91 1
  92   42   92 1
  93   43   44 2
  94   43   45 1
  95   45   93 1
  96   46   47 1
  97   46   48 1
  98   46   49 1

#	End of record

