#	Name: ASD01901058
#	Creating user name:	WinNT
#	Creation time:	15. 06. 2019 19:53

#	Modifying user name:	WinNT
#	Modification time:	15. 06. 2019 19:53

#	Program:	/corina/corina34_cracker 3.40 0067  02.08.2006

@<TRIPOS>MOLECULE
ASD01901058
  38   40    0    0    0
SMALL
NO_CHARGES


@<TRIPOS>ATOM
   1 C1             0.1733     0.9381     0.4708 C.2     
   2 C2            -0.9190     1.2513     1.2184 C.2     
   3 C3            -0.7145     2.4042     2.0641 C.2     
   4 C4             0.4990     2.9293     1.9438 C.2     
   5 S5             1.4500     2.0247     0.7788 S.3     
   6 C6            -2.1796     0.4934     1.1705 C.2     
   7 O7            -3.1184     0.8298     1.8672 O.2     
   8 N8            -2.2939    -0.5734     0.3549 N.am    
   9 C9            -3.4565    -1.3506     0.3789 C.ar    
  10 C10           -4.6914    -0.7495     0.5852 C.ar    
  11 C11           -5.8374    -1.5198     0.6084 C.ar    
  12 C12           -5.7563    -2.8883     0.4269 C.ar    
  13 C13           -4.5283    -3.4899     0.2213 C.ar    
  14 C14           -3.3791    -2.7245     0.1908 C.ar    
  15 S15           -7.2207    -3.8676     0.4584 S.o2    
  16 O16           -6.8148    -5.1857     0.8006 O.2     
  17 O17           -8.1799    -3.1313     1.2048 O.2     
  18 N18           -7.7935    -3.9429    -1.0936 N.am    
  19 C19           -7.0048    -4.5010    -2.1032 C.ar    
  20 C20           -7.0416    -3.9725    -3.3886 C.ar    
  21 C21           -6.2604    -4.5271    -4.3841 C.ar    
  22 C22           -5.4427    -5.6066    -4.1026 C.ar    
  23 C23           -5.4043    -6.1344    -2.8255 C.ar    
  24 C24           -6.1782    -5.5810    -1.8236 C.ar    
  25 Cl25          -8.0683    -2.6180    -3.7425 Cl      
  26 H26            0.2261     0.1103    -0.2209 H       
  27 H27           -1.4711     2.7988     2.7260 H       
  28 H28            0.8518     3.7934     2.4872 H       
  29 H29           -1.5700    -0.8021    -0.2488 H       
  30 H30           -4.7553     0.3192     0.7277 H       
  31 H31           -6.7980    -1.0530     0.7688 H       
  32 H32           -4.4683    -4.5590     0.0802 H       
  33 H33           -2.4208    -3.1944     0.0253 H       
  34 H34           -8.6765    -3.5995    -1.3019 H       
  35 H35           -6.2885    -4.1176    -5.3831 H       
  36 H36           -4.8329    -6.0383    -4.8825 H       
  37 H37           -4.7649    -6.9775    -2.6094 H       
  38 H38           -6.1439    -5.9911    -0.8251 H       
@<TRIPOS>BOND
   1    1    2 2
   2    1    5 1
   3    1   26 1
   4    2    3 1
   5    2    6 1
   6    3    4 2
   7    3   27 1
   8    4    5 1
   9    4   28 1
  10    6    7 2
  11    6    8 am
  12    8    9 1
  13    8   29 1
  14    9   10 ar
  15    9   14 ar
  16   10   11 ar
  17   10   30 1
  18   11   12 ar
  19   11   31 1
  20   12   13 ar
  21   12   15 1
  22   13   14 ar
  23   13   32 1
  24   14   33 1
  25   15   16 2
  26   15   17 2
  27   15   18 am
  28   18   19 1
  29   18   34 1
  30   19   20 ar
  31   19   24 ar
  32   20   21 ar
  33   20   25 1
  34   21   22 ar
  35   21   35 1
  36   22   23 ar
  37   22   36 1
  38   23   24 ar
  39   23   37 1
  40   24   38 1

#	End of record

