#	Name: ASD01913264
#	Creating user name:	WinNT
#	Creation time:	15. 06. 2019 20:01

#	Modifying user name:	WinNT
#	Modification time:	15. 06. 2019 20:01

#	Program:	/corina/corina34_cracker 3.40 0067  02.08.2006

@<TRIPOS>MOLECULE
ASD01913264
  43   46    0    0    0
SMALL
NO_CHARGES


@<TRIPOS>ATOM
   1 C1             0.3405    -8.2535    -1.0678 C.ar    
   2 C2             0.2580    -6.9053    -0.7716 C.ar    
   3 C3             1.4236    -6.1724    -0.6389 C.ar    
   4 C4             2.6380    -6.8179    -0.8087 C.ar    
   5 C5             2.6435    -8.1685    -1.1040 C.ar    
   6 N6             1.5129    -8.8371    -1.2226 N.ar    
   7 N7            -0.3929    -4.6506    -0.2642 N.am    
   8 C8            -0.9175    -5.9916    -0.5446 C.3     
   9 C9             1.0703    -4.7452    -0.3191 C.3     
  10 C10           -1.1166    -3.5434    -0.0059 C.2     
  11 O11           -0.5569    -2.5109     0.3074 O.2     
  12 C12           -2.5914    -3.5845    -0.1038 C.ar    
  13 C13           -3.2434    -4.7977    -0.3134 C.ar    
  14 C14           -4.6349    -4.8275    -0.4039 C.ar    
  15 C15           -5.3652    -3.6408    -0.2838 C.ar    
  16 C16           -4.7114    -2.4431    -0.0763 C.ar    
  17 C17           -3.3340    -2.4081     0.0195 C.ar    
  18 C18           -6.8687    -3.6697    -0.3817 C.3     
  19 F19           -7.3709    -2.3726    -0.2320 F       
  20 F20           -7.2450    -4.1741    -1.6312 F       
  21 F21           -7.3860    -4.4894     0.6271 F       
  22 C22           -5.3140    -6.0696    -0.6198 C.1     
  23 C23           -5.8707    -7.0880    -0.7967 C.1     
  24 C24           -6.5497    -8.3301    -1.0125 C.ar    
  25 C25           -7.9441    -8.3521    -1.1021 C.ar    
  26 C26           -8.5844    -9.5598    -1.3112 C.ar    
  27 C27           -7.8130   -10.7089    -1.4244 C.ar    
  28 C28           -6.4368   -10.6161    -1.3260 C.ar    
  29 N29           -5.8487    -9.4536    -1.1317 N.ar    
  30 H30           -0.5639    -8.8351    -1.1689 H       
  31 H31            3.5661    -6.2741    -0.7121 H       
  32 H32            3.5841    -8.6819    -1.2384 H       
  33 H33           -1.5422    -5.9647    -1.4374 H       
  34 H34           -1.5014    -6.3451     0.3053 H       
  35 H35            1.4951    -4.4665     0.6452 H       
  36 H36            1.4543    -4.0860    -1.0977 H       
  37 H37           -2.6740    -5.7108    -0.4057 H       
  38 H38           -5.2800    -1.5295     0.0158 H       
  39 H39           -2.8295    -1.4678     0.1865 H       
  40 H40           -8.5135    -7.4391    -1.0091 H       
  41 H41           -9.6608    -9.6083    -1.3845 H       
  42 H42           -8.2839   -11.6670    -1.5876 H       
  43 H43           -5.8353   -11.5088    -1.4138 H       
@<TRIPOS>BOND
   1    1    2 ar
   2    1    6 ar
   3    1   30 1
   4    2    3 ar
   5    2    8 1
   6    3    4 ar
   7    3    9 1
   8    4    5 ar
   9    4   31 1
  10    5    6 ar
  11    5   32 1
  12    7    8 1
  13    7    9 1
  14    7   10 am
  15    8   33 1
  16    8   34 1
  17    9   35 1
  18    9   36 1
  19   10   11 2
  20   10   12 1
  21   12   13 ar
  22   12   17 ar
  23   13   14 ar
  24   13   37 1
  25   14   15 ar
  26   14   22 1
  27   15   16 ar
  28   15   18 1
  29   16   17 ar
  30   16   38 1
  31   17   39 1
  32   18   19 1
  33   18   20 1
  34   18   21 1
  35   22   23 3
  36   23   24 1
  37   24   25 ar
  38   24   29 ar
  39   25   26 ar
  40   25   40 1
  41   26   27 ar
  42   26   41 1
  43   27   28 ar
  44   27   42 1
  45   28   29 ar
  46   28   43 1

#	End of record

