#	Name: ASD03730799
#	Creating user name:	WinNT
#	Creation time:	15. 06. 2019 20:44

#	Modifying user name:	WinNT
#	Modification time:	15. 06. 2019 20:44

#	Program:	/corina/corina34_cracker 3.40 0067  02.08.2006

@<TRIPOS>MOLECULE
ASD03730799
  44   48    0    0    0
SMALL
NO_CHARGES


@<TRIPOS>ATOM
   1 O1            -0.0175     1.4361     0.0099 O.3     
   2 C2             0.0021    -0.0041     0.0020 C.3     
   3 C3             1.3458    -0.3163    -0.6708 C.3     
   4 C4             2.1586     0.9230    -0.4087 C.ar    
   5 C5             1.2614     1.9062     0.0003 C.ar    
   6 C6             1.7496     3.1681     0.3265 C.ar    
   7 C7             3.0994     3.4384     0.2351 C.ar    
   8 C8             3.9802     2.4573    -0.1806 C.ar    
   9 C9             3.5050     1.1984    -0.5019 C.ar    
  10 N10            2.1589    -2.4047    -1.1211 N.am    
  11 C11            1.9847    -1.5477    -0.0954 C.2     
  12 C12            1.1884    -0.5974    -2.1355 C.ar    
  13 C13            0.6774     0.1217    -3.1931 C.ar    
  14 C14            0.6701    -0.4253    -4.4639 C.ar    
  15 C15            1.1773    -1.6954    -4.6698 C.ar    
  16 C16            1.6901    -2.4196    -3.6138 C.ar    
  17 C17            1.7019    -1.8770    -2.3312 C.ar    
  18 O18            2.2851    -1.7344     1.0647 O.2     
  19 N19            7.1064     4.2050    -1.3679 N.3     
  20 C20            5.6731     3.8971    -1.2825 C.3     
  21 C21            5.4532     2.7584    -0.2840 C.3     
  22 C22            5.9865     3.1793     1.0883 C.3     
  23 C23            7.4690     3.5410     0.9620 C.3     
  24 C24            7.6305     4.6570    -0.0727 C.3     
  25 H25           -0.0222    -0.3969     1.0185 H       
  26 H26           -0.8262    -0.3990    -0.5864 H       
  27 H27            1.0682     3.9400     0.6526 H       
  28 H28            3.4695     4.4206     0.4892 H       
  29 H29            4.1910     0.4301    -0.8267 H       
  30 H30            2.5554    -3.2852    -1.0297 H       
  31 H31            0.2818     1.1133    -3.0303 H       
  32 H32            0.2688     0.1381    -5.2933 H       
  33 H33            1.1714    -2.1223    -5.6618 H       
  34 H34            2.0840    -3.4110    -3.7822 H       
  35 H35            7.6268     3.4119    -1.7116 H       
  36 H36            5.1308     4.7820    -0.9495 H       
  37 H37            5.3074     3.5952    -2.2639 H       
  38 H38            5.9835     1.8688    -0.6239 H       
  39 H39            5.4294     4.0454     1.4456 H       
  40 H40            5.8713     2.3552     1.7923 H       
  41 H41            7.8438     3.8823     1.9269 H       
  42 H42            8.0316     2.6639     0.6420 H       
  43 H43            8.6864     4.9070    -0.1754 H       
  44 H44            7.0789     5.5383     0.2547 H       
@<TRIPOS>BOND
   1    1    2 1
   2    1    5 1
   3    2    3 1
   4    2   25 1
   5    2   26 1
   6    3    4 1
   7    3   11 1
   8    3   12 1
   9    4    5 ar
  10    4    9 ar
  11    5    6 ar
  12    6    7 ar
  13    6   27 1
  14    7    8 ar
  15    7   28 1
  16    8    9 ar
  17    8   21 1
  18    9   29 1
  19   10   11 am
  20   10   17 1
  21   10   30 1
  22   11   18 2
  23   12   13 ar
  24   12   17 ar
  25   13   14 ar
  26   13   31 1
  27   14   15 ar
  28   14   32 1
  29   15   16 ar
  30   15   33 1
  31   16   17 ar
  32   16   34 1
  33   19   20 1
  34   19   24 1
  35   19   35 1
  36   20   21 1
  37   20   36 1
  38   20   37 1
  39   21   22 1
  40   21   38 1
  41   22   23 1
  42   22   39 1
  43   22   40 1
  44   23   24 1
  45   23   41 1
  46   23   42 1
  47   24   43 1
  48   24   44 1

#	End of record

