#	Name: ASD03092869
#	Creating user name:	WinNT
#	Creation time:	15. 06. 2019 20:33

#	Modifying user name:	WinNT
#	Modification time:	15. 06. 2019 20:33

#	Program:	/corina/corina34_cracker 3.40 0067  02.08.2006

@<TRIPOS>MOLECULE
ASD03092869
  35   37    0    0    0
SMALL
NO_CHARGES


@<TRIPOS>ATOM
   1 C1            -0.0178     1.4648     0.0101 C.3     
   2 N2             0.0021    -0.0041     0.0020 N.3     
   3 C3            -1.3588    -0.5483    -0.0886 C.3     
   4 C4            -1.2921    -2.0696    -0.2410 C.3     
   5 C5            -0.5626    -2.6671     0.9654 C.3     
   6 C6             0.8343    -2.0480     1.0652 C.3     
   7 C7             0.7059    -0.5273     1.1798 C.3     
   8 C8             2.0793     0.0880     1.2585 C.ar    
   9 C9             2.8248     0.2799     0.0976 C.ar    
  10 N10            4.0227     0.8120     0.1269 N.ar    
  11 C11            4.5846     1.1957     1.2773 C.ar    
  12 C12            5.8693     1.7663     1.3030 C.ar    
  13 C13            6.4151     2.1476     2.4898 C.ar    
  14 C14            5.7212     1.9820     3.6869 C.ar    
  15 C15            4.4755     1.4331     3.7020 C.ar    
  16 C16            3.8806     1.0288     2.4959 C.ar    
  17 C17            2.5922     0.4633     2.4678 C.ar    
  18 H18            1.0047     1.8421     0.0024 H       
  19 H19           -0.5450     1.8259    -0.8730 H       
  20 H20           -0.5280     1.8163     0.9069 H       
  21 H21           -1.9111    -0.2980     0.8172 H       
  22 H22           -1.8650    -0.1186    -0.9529 H       
  23 H23           -2.3027    -2.4749    -0.2925 H       
  24 H24           -0.7518    -2.3205    -1.1539 H       
  25 H25           -1.1233    -2.4496     1.8745 H       
  26 H26           -0.4746    -3.7463     0.8400 H       
  27 H27            1.3429    -2.4377     1.9470 H       
  28 H28            1.4080    -2.2985     0.1729 H       
  29 H29            0.1439    -0.2771     2.0796 H       
  30 H30            2.4050    -0.0178    -0.8519 H       
  31 H31            6.4211     1.9011     0.3845 H       
  32 H32            7.4023     2.5854     2.5042 H       
  33 H33            6.1778     2.2929     4.6149 H       
  34 H34            3.9478     1.3092     4.6362 H       
  35 H35            2.0264     0.3259     3.3774 H       
@<TRIPOS>BOND
   1    1    2 1
   2    1   18 1
   3    1   19 1
   4    1   20 1
   5    2    7 1
   6    2    3 1
   7    3    4 1
   8    3   21 1
   9    3   22 1
  10    4    5 1
  11    4   23 1
  12    4   24 1
  13    5    6 1
  14    5   25 1
  15    5   26 1
  16    6    7 1
  17    6   27 1
  18    6   28 1
  19    7    8 1
  20    7   29 1
  21    8   17 ar
  22    8    9 ar
  23    9   10 ar
  24    9   30 1
  25   10   11 ar
  26   11   16 ar
  27   11   12 ar
  28   12   13 ar
  29   12   31 1
  30   13   14 ar
  31   13   32 1
  32   14   15 ar
  33   14   33 1
  34   15   16 ar
  35   15   34 1
  36   16   17 ar
  37   17   35 1

#	End of record

