#	Name: ASD01840235
#	Creating user name:	WinNT
#	Creation time:	15. 06. 2019 19:37

#	Modifying user name:	WinNT
#	Modification time:	15. 06. 2019 19:37

#	Program:	/corina/corina34_cracker 3.40 0067  02.08.2006

@<TRIPOS>MOLECULE
ASD01840235
  48   51    0    0    0
SMALL
NO_CHARGES


@<TRIPOS>ATOM
   1 C1            -0.1559     0.8941    -0.4512 C.3     
   2 C2            -0.0804    -0.5957    -0.1112 C.3     
   3 N3             0.6704    -0.7750     1.1340 N.pl3   
   4 C4             2.0456    -0.8468     1.2389 C.2     
   5 C5             2.3766    -1.0159     2.5515 C.2     
   6 C6             1.1774    -1.0509     3.2873 C.2     
   7 C7             0.1281    -0.8917     2.3721 C.2     
   8 C8            -1.2480    -0.8850     2.8841 C.ar    
   9 C9            -2.3320    -0.7337     2.0158 C.ar    
  10 C10           -3.6147    -0.7307     2.5171 C.ar    
  11 C11           -3.8339    -0.8765     3.8787 C.ar    
  12 C12           -2.7747    -1.0263     4.7480 C.ar    
  13 C13           -1.4703    -1.0332     4.2638 C.ar    
  14 N14           -0.4088    -1.1849     5.1372 N.am    
  15 C15           -0.6817    -1.3372     6.5685 C.3     
  16 C16            0.8664    -1.2051     4.7098 C.2     
  17 O17            1.7706    -1.3390     5.5142 O.2     
  18 C18            2.9943    -0.7566     0.1226 C.2     
  19 O19            4.1768    -0.9743     0.3100 O.2     
  20 N20            2.5558    -0.4328    -1.1099 N.am    
  21 C21            3.5128    -0.2563    -2.2050 C.3     
  22 C22            3.7830    -1.6099    -2.8939 C.3     
  23 C23            2.8146    -1.6210    -4.1027 C.3     
  24 C24            2.8502    -0.1488    -4.5827 C.3     
  25 C25            2.9197     0.6727    -3.2788 C.3     
  26 H26            0.8521     1.2902    -0.5745 H       
  27 H27           -0.7145     1.0275    -1.3776 H       
  28 H28           -0.6590     1.4260     0.3563 H       
  29 H29           -1.0884    -0.9918     0.0121 H       
  30 H30            0.4227    -1.1277    -0.9186 H       
  31 H31            3.3753    -1.1069     2.9523 H       
  32 H32           -2.1646    -0.6192     0.9550 H       
  33 H33           -4.4535    -0.6138     1.8470 H       
  34 H34           -4.8438    -0.8724     4.2614 H       
  35 H35           -2.9575    -1.1384     5.8065 H       
  36 H36           -0.7982    -2.3946     6.8057 H       
  37 H37            0.1485    -0.9254     7.1424 H       
  38 H38           -1.5983    -0.8048     6.8223 H       
  39 H39            1.6065    -0.3165    -1.2719 H       
  40 H40            4.4442     0.1615    -1.8229 H       
  41 H41            4.8173    -1.6655    -3.2332 H       
  42 H42            3.5577    -2.4341    -2.2171 H       
  43 H43            3.1777    -2.2904    -4.8824 H       
  44 H44            1.8088    -1.9009    -3.7893 H       
  45 H45            3.7339     0.0316    -5.1948 H       
  46 H46            1.9442     0.0933    -5.1383 H       
  47 H47            1.9198     0.9923    -2.9851 H       
  48 H48            3.5637     1.5409    -3.4184 H       
@<TRIPOS>BOND
   1    1    2 1
   2    1   26 1
   3    1   27 1
   4    1   28 1
   5    2    3 1
   6    2   29 1
   7    2   30 1
   8    3    7 1
   9    3    4 1
  10    4    5 2
  11    4   18 1
  12    5    6 1
  13    5   31 1
  14    6   16 1
  15    6    7 2
  16    7    8 1
  17    8   13 ar
  18    8    9 ar
  19    9   10 ar
  20    9   32 1
  21   10   11 ar
  22   10   33 1
  23   11   12 ar
  24   11   34 1
  25   12   13 ar
  26   12   35 1
  27   13   14 1
  28   14   15 1
  29   14   16 am
  30   15   36 1
  31   15   37 1
  32   15   38 1
  33   16   17 2
  34   18   19 2
  35   18   20 am
  36   20   21 1
  37   20   39 1
  38   21   25 1
  39   21   22 1
  40   21   40 1
  41   22   23 1
  42   22   41 1
  43   22   42 1
  44   23   24 1
  45   23   43 1
  46   23   44 1
  47   24   25 1
  48   24   45 1
  49   24   46 1
  50   25   47 1
  51   25   48 1

#	End of record

