#	Name: ASD01152566
#	Creating user name:	WinNT
#	Creation time:	15. 06. 2019 19:06

#	Modifying user name:	WinNT
#	Modification time:	15. 06. 2019 19:06

#	Program:	/corina/corina34_cracker 3.40 0067  02.08.2006

@<TRIPOS>MOLECULE
ASD01152566
  59   62    0    0    0
SMALL
NO_CHARGES


@<TRIPOS>ATOM
   1 C1             0.1114     1.1571    -0.6959 C.2     
   2 N2             0.0189    -0.1436    -0.6175 N.2     
   3 N3            -1.1205    -0.7661    -0.1080 N.am    
   4 C4            -2.2615    -0.0993     0.1330 C.2     
   5 C5            -2.3924     1.3536    -0.2592 C.3     
   6 C6            -1.0084     1.9736    -0.2035 C.2     
   7 C7            -2.9557     1.4586    -1.6778 C.3     
   8 O8            -0.8358     3.0970     0.2224 O.2     
   9 C9            -1.0734    -2.1389     0.1623 C.ar    
  10 O10           -3.1907    -0.6664     0.6673 O.2     
  11 C11           -3.1985     2.9070    -2.0160 C.ar    
  12 C12           -0.0101    -2.6693     0.8797 C.ar    
  13 C13           -2.0939    -2.9703    -0.2824 C.ar    
  14 C14           -2.0490    -4.3251    -0.0160 C.ar    
  15 C15           -0.9884    -4.8582     0.6946 C.ar    
  16 C16            0.0334    -4.0297     1.1463 C.ar    
  17 C17           -2.1976     3.6545    -2.6059 C.ar    
  18 C18           -4.4245     3.4840    -1.7404 C.ar    
  19 C19           -4.6523     4.8125    -2.0492 C.ar    
  20 C20           -2.4211     4.9888    -2.9175 C.ar    
  21 C21           -3.6533     5.5685    -2.6346 C.ar    
  22 F22           -3.8759     6.8663    -2.9368 F       
  23 F23           -0.9477    -6.1834     0.9543 F       
  24 N24           -1.4099     5.7481    -3.5147 N.3     
  25 C25           -0.2174     5.8051    -2.6568 C.3     
  26 C26            0.8825     6.5933    -3.3728 C.3     
  27 O27            0.3910     7.8949    -3.7037 O.3     
  28 C28           -0.7698     7.8767    -4.5390 C.3     
  29 C29           -1.8865     7.1015    -3.8348 C.3     
  30 O30            1.2212     1.7435    -1.2163 O.3     
  31 C31            2.2637     0.8753    -1.6654 C.3     
  32 N32            1.1045    -4.5683     1.8702 N.am    
  33 C33            1.7680    -3.8044     2.7605 C.2     
  34 O34            1.4983    -2.6269     2.8693 O.2     
  35 C35            2.8451    -4.4133     3.6209 C.3     
  36 H36           -3.0529     1.8665     0.4399 H       
  37 H37           -2.2419     1.0353    -2.3844 H       
  38 H38           -3.8952     0.9092    -1.7373 H       
  39 H39            0.7820    -2.0238     1.2294 H       
  40 H40           -2.9234    -2.5568    -0.8368 H       
  41 H41           -2.8435    -4.9693    -0.3628 H       
  42 H42           -1.2419     3.2014    -2.8243 H       
  43 H43           -5.2062     2.8955    -1.2831 H       
  44 H44           -5.6112     5.2599    -1.8333 H       
  45 H45           -0.4676     6.2997    -1.7182 H       
  46 H46            0.1333     4.7933    -2.4534 H       
  47 H47            1.7485     6.6870    -2.7175 H       
  48 H48            1.1703     6.0702    -4.2847 H       
  49 H49           -1.0989     8.8987    -4.7271 H       
  50 H50           -0.5301     7.3909    -5.4848 H       
  51 H51           -2.7541     7.0360    -4.4914 H       
  52 H52           -2.1634     7.6169    -2.9151 H       
  53 H53            1.8808     0.2239    -2.4511 H       
  54 H54            3.0888     1.4704    -2.0568 H       
  55 H55            2.6166     0.2693    -0.8309 H       
  56 H56            1.3688    -5.4911     1.7308 H       
  57 H57            2.9446    -5.4724     3.3831 H       
  58 H58            3.7917    -3.9076     3.4302 H       
  59 H59            2.5780    -4.3003     4.6716 H       
@<TRIPOS>BOND
   1    1    2 2
   2    1   30 1
   3    1    6 1
   4    2    3 1
   5    3    4 am
   6    3    9 1
   7    4    5 1
   8    4   10 2
   9    5    6 1
  10    5    7 1
  11    5   36 1
  12    6    8 2
  13    7   11 1
  14    7   37 1
  15    7   38 1
  16    9   12 ar
  17    9   13 ar
  18   11   17 ar
  19   11   18 ar
  20   12   16 ar
  21   12   39 1
  22   13   14 ar
  23   13   40 1
  24   14   15 ar
  25   14   41 1
  26   15   16 ar
  27   15   23 1
  28   16   32 1
  29   17   20 ar
  30   17   42 1
  31   18   19 ar
  32   18   43 1
  33   19   21 ar
  34   19   44 1
  35   20   24 1
  36   20   21 ar
  37   21   22 1
  38   24   25 1
  39   24   29 1
  40   25   26 1
  41   25   45 1
  42   25   46 1
  43   26   27 1
  44   26   47 1
  45   26   48 1
  46   27   28 1
  47   28   29 1
  48   28   49 1
  49   28   50 1
  50   29   51 1
  51   29   52 1
  52   30   31 1
  53   31   53 1
  54   31   54 1
  55   31   55 1
  56   32   33 am
  57   32   56 1
  58   33   34 2
  59   33   35 1
  60   35   57 1
  61   35   58 1
  62   35   59 1

#	End of record

