#	Name: ASD04910426
#	Creating user name:	WinNT
#	Creation time:	15. 06. 2019 20:55

#	Modifying user name:	WinNT
#	Modification time:	15. 06. 2019 20:55

#	Program:	/corina/corina34_cracker 3.40 0067  02.08.2006

@<TRIPOS>MOLECULE
ASD04910426
  68   71    0    0    0
SMALL
NO_CHARGES


@<TRIPOS>ATOM
   1 C1            -0.9689     1.1804     0.4697 C.2     
   2 C2            -0.7990    -0.3140     0.3743 C.3     
   3 C3             0.6914    -0.6594     0.3833 C.3     
   4 O4             0.0025     1.8957     0.5379 O.2     
   5 O5            -2.1992     1.7171     0.4733 O.3     
   6 C6             2.0920    -2.6507     0.2812 C.2     
   7 C7             2.2583    -4.1137     0.1878 C.ar    
   8 C8             3.5402    -4.6852     0.1773 C.ar    
   9 C9             3.6473    -6.0467     0.0893 C.ar    
  10 C10            2.4902    -6.8202     0.0132 C.ar    
  11 N11            1.2907    -6.2550     0.0245 N.ar    
  12 C12            1.1432    -4.9496     0.1143 C.ar    
  13 O13            3.0696    -1.9309     0.3499 O.2     
  14 N14            0.8566    -2.1121     0.2905 N.am    
  15 N15            2.5947    -8.1980    -0.0760 N.pl3   
  16 C16            3.9077    -8.8407     0.0204 C.3     
  17 C17            4.2697    -9.0287     1.4711 C.ar    
  18 C18            5.4201    -9.7166     1.8117 C.ar    
  19 C19            5.7548    -9.8901     3.1403 C.ar    
  20 C20            4.9348    -9.3730     4.1346 C.ar    
  21 C21            3.7808    -8.6830     3.7895 C.ar    
  22 C22            3.4541    -8.5082     2.4587 C.ar    
  23 N23            5.2716    -9.5479     5.4840 N.pl3   
  24 N24            6.4001   -10.2194     5.9718 N.2     
  25 C25            6.3704   -10.1731     7.2794 C.2     
  26 C26            5.2234    -9.4716     7.6669 C.2     
  27 C27            4.5677    -9.0932     6.5453 C.2     
  28 C28            4.7969    -9.1832     9.0832 C.3     
  29 F29            5.7305    -9.7276     9.9715 F       
  30 F30            4.7223    -7.7994     9.2752 F       
  31 F31            3.5417    -9.7548     9.3178 F       
  32 C32            6.3092   -10.2778     0.7321 C.3     
  33 C33            1.3924    -9.0130    -0.2667 C.3     
  34 C34            0.4734    -8.8579     0.9467 C.3     
  35 C35           -0.7822    -9.7091     0.7476 C.3     
  36 C36           -1.5177    -9.2462    -0.5116 C.3     
  37 C37           -0.5988    -9.4013    -1.7251 C.3     
  38 C38            0.6569    -8.5501    -1.5259 C.3     
  39 H39           -1.2875    -0.7902     1.2243 H       
  40 H40           -1.2495    -0.6725    -0.5513 H       
  41 H41            1.1799    -0.1832    -0.4668 H       
  42 H42            1.1419    -0.3009     1.3088 H       
  43 H43           -2.2578     2.6803     0.5362 H       
  44 H44            4.4220    -4.0645     0.2371 H       
  45 H45            4.6193    -6.5174     0.0786 H       
  46 H46            0.1515    -4.5221     0.1263 H       
  47 H47            0.0767    -2.6864     0.2357 H       
  48 H48            3.8742    -9.8113    -0.4745 H       
  49 H49            4.6561    -8.2123    -0.4624 H       
  50 H50            6.6531   -10.4276     3.4057 H       
  51 H51            3.1411    -8.2798     4.5606 H       
  52 H52            2.5587    -7.9676     2.1895 H       
  53 H53            7.1044   -10.6030     7.9449 H       
  54 H54            3.6465    -8.5310     6.5051 H       
  55 H55            7.1066    -9.5679     0.5125 H       
  56 H56            6.7433   -11.2183     1.0713 H       
  57 H57            5.7207   -10.4532    -0.1685 H       
  58 H58            1.6765   -10.0596    -0.3759 H       
  59 H59            0.9974    -9.1877     1.8438 H       
  60 H60            0.1893    -7.8113     1.0560 H       
  61 H61           -0.4981   -10.7558     0.6384 H       
  62 H62           -1.4369    -9.5987     1.6120 H       
  63 H63           -2.4123    -9.8527    -0.6535 H       
  64 H64           -1.8018    -8.1996    -0.4024 H       
  65 H65           -0.3147   -10.4479    -1.8343 H       
  66 H66           -1.1227    -9.0715    -2.6222 H       
  67 H67            0.3728    -7.5035    -1.4167 H       
  68 H68            1.3116    -8.6606    -2.3904 H       
@<TRIPOS>BOND
   1    1    2 1
   2    1    4 2
   3    1    5 1
   4    2    3 1
   5    2   39 1
   6    2   40 1
   7    3   14 1
   8    3   41 1
   9    3   42 1
  10    5   43 1
  11    6    7 1
  12    6   13 2
  13    6   14 am
  14    7    8 ar
  15    7   12 ar
  16    8    9 ar
  17    8   44 1
  18    9   10 ar
  19    9   45 1
  20   10   11 ar
  21   10   15 1
  22   11   12 ar
  23   12   46 1
  24   14   47 1
  25   15   16 1
  26   15   33 1
  27   16   17 1
  28   16   48 1
  29   16   49 1
  30   17   18 ar
  31   17   22 ar
  32   18   19 ar
  33   18   32 1
  34   19   20 ar
  35   19   50 1
  36   20   21 ar
  37   20   23 1
  38   21   22 ar
  39   21   51 1
  40   22   52 1
  41   23   24 1
  42   23   27 1
  43   24   25 2
  44   25   26 1
  45   25   53 1
  46   26   27 2
  47   26   28 1
  48   27   54 1
  49   28   29 1
  50   28   30 1
  51   28   31 1
  52   32   55 1
  53   32   56 1
  54   32   57 1
  55   33   34 1
  56   33   38 1
  57   33   58 1
  58   34   35 1
  59   34   59 1
  60   34   60 1
  61   35   36 1
  62   35   61 1
  63   35   62 1
  64   36   37 1
  65   36   63 1
  66   36   64 1
  67   37   38 1
  68   37   65 1
  69   37   66 1
  70   38   67 1
  71   38   68 1

#	End of record

