#	Name: ASD01208037
#	Creating user name:	WinNT
#	Creation time:	15. 06. 2019 19:09

#	Modifying user name:	WinNT
#	Modification time:	15. 06. 2019 19:09

#	Program:	/corina/corina34_cracker 3.40 0067  02.08.2006

@<TRIPOS>MOLECULE
ASD01208037
  62   65    0    0    0
SMALL
NO_CHARGES


@<TRIPOS>ATOM
   1 C1            -0.0844     1.4338     0.0275 C.ar    
   2 C2             0.0183     0.0510    -0.0132 C.ar    
   3 C3            -1.1248    -0.7351     0.0260 C.ar    
   4 C4            -2.3735    -0.1413     0.1064 C.ar    
   5 C5            -2.4811     1.2494     0.1479 C.ar    
   6 C6            -1.3291     2.0357     0.1136 C.ar    
   7 C7            -3.8117     1.8875     0.2337 C.2     
   8 C8            -4.0550     3.2416     0.2809 C.2     
   9 N9            -5.0113     1.2346     0.2737 N.pl3   
  10 C10           -6.0165     2.1695     0.3514 C.2     
  11 C11           -5.4372     3.4199     0.3568 C.2     
  12 O12            1.0381     2.1991    -0.0116 O.3     
  13 C13            0.8560     3.6142    -0.0908 C.3     
  14 C14            2.0901     4.2521    -0.7319 C.3     
  15 O15            3.2212     4.0635     0.1208 O.3     
  16 C16            0.6608     4.1828     1.3162 C.3     
  17 O17           -1.0188    -2.0893    -0.0150 O.3     
  18 C18           -1.4876    -2.7328    -1.1161 C.ar    
  19 C19           -1.9381    -2.0043    -2.2078 C.ar    
  20 C20           -1.5114    -4.1197    -1.1531 C.ar    
  21 C21           -1.9886    -4.7715    -2.2736 C.ar    
  22 C22           -2.4418    -4.0431    -3.3580 C.ar    
  23 C23           -2.4143    -2.6610    -3.3259 C.ar    
  24 S24           -3.0493    -4.8776    -4.7861 S.o2    
  25 C25           -4.8238    -5.0824    -4.4700 C.3     
  26 O26           -2.8347    -3.9575    -5.8474 O.2     
  27 O27           -2.3902    -6.1363    -4.7632 O.2     
  28 C28           -7.4572     1.8851     0.4144 C.2     
  29 C29            4.4327     4.6250    -0.3880 C.3     
  30 O30           -7.8530     0.5964     0.3956 O.3     
  31 N31           -8.2736     2.8843     0.4899 N.2     
  32 C32           -9.7235     2.7299     0.5776 C.3     
  33 C33          -10.1240     1.3255     0.1147 C.3     
  34 C34           -9.1951     0.3143     0.8054 C.3     
  35 H35            0.9906    -0.4151    -0.0758 H       
  36 H36           -3.2626    -0.7537     0.1364 H       
  37 H37           -1.4081     3.1123     0.1456 H       
  38 H38           -3.3110     4.0242     0.2631 H       
  39 H39           -5.1334     0.2726     0.2511 H       
  40 H40           -5.9575     4.3648     0.4100 H       
  41 H41           -0.0229     3.8342    -0.6967 H       
  42 H42            2.2810     3.7838    -1.6975 H       
  43 H43            1.9157     5.3187    -0.8736 H       
  44 H44            1.5398     3.9629     1.9221 H       
  45 H45            0.5220     5.2622     1.2558 H       
  46 H46           -0.2184     3.7284     1.7730 H       
  47 H47           -1.9168    -0.9248    -2.1831 H       
  48 H48           -1.1569    -4.6891    -0.3066 H       
  49 H49           -2.0074    -5.8509    -2.3029 H       
  50 H50           -2.7692    -2.0944    -4.1741 H       
  51 H51           -5.2857    -4.1032    -4.3437 H       
  52 H52           -5.2860    -5.5961    -5.3130 H       
  53 H53           -4.9659    -5.6709    -3.5636 H       
  54 H54            5.2432     4.4396     0.3168 H       
  55 H55            4.6722     4.1644    -1.3464 H       
  56 H56            4.3069     5.6993    -0.5225 H       
  57 H57          -10.0417     2.8758     1.6098 H       
  58 H58          -10.2061     3.4723    -0.0580 H       
  59 H59          -11.1578     1.1259     0.3968 H       
  60 H60          -10.0162     1.2500    -0.9674 H       
  61 H61           -9.4646    -0.6983     0.5055 H       
  62 H62           -9.2813     0.4142     1.8874 H       
@<TRIPOS>BOND
   1    1    2 ar
   2    1   12 1
   3    1    6 ar
   4    2    3 ar
   5    2   35 1
   6    3    4 ar
   7    3   17 1
   8    4    5 ar
   9    4   36 1
  10    5    6 ar
  11    5    7 1
  12    6   37 1
  13    7    8 2
  14    7    9 1
  15    8   11 1
  16    8   38 1
  17    9   10 1
  18    9   39 1
  19   10   11 2
  20   10   28 1
  21   11   40 1
  22   12   13 1
  23   13   14 1
  24   13   16 1
  25   13   41 1
  26   14   15 1
  27   14   42 1
  28   14   43 1
  29   15   29 1
  30   16   44 1
  31   16   45 1
  32   16   46 1
  33   17   18 1
  34   18   19 ar
  35   18   20 ar
  36   19   23 ar
  37   19   47 1
  38   20   21 ar
  39   20   48 1
  40   21   22 ar
  41   21   49 1
  42   22   23 ar
  43   22   24 1
  44   23   50 1
  45   24   25 1
  46   24   26 2
  47   24   27 2
  48   25   51 1
  49   25   52 1
  50   25   53 1
  51   28   30 1
  52   28   31 2
  53   29   54 1
  54   29   55 1
  55   29   56 1
  56   30   34 1
  57   31   32 1
  58   32   33 1
  59   32   57 1
  60   32   58 1
  61   33   34 1
  62   33   59 1
  63   33   60 1
  64   34   61 1
  65   34   62 1

#	End of record

