#	Name: ASD05940100
#	Creating user name:	WinNT
#	Creation time:	15. 06. 2019 21:04

#	Modifying user name:	WinNT
#	Modification time:	15. 06. 2019 21:04

#	Program:	/corina/corina34_cracker 3.40 0067  02.08.2006

@<TRIPOS>MOLECULE
ASD05940100
  51   52    0    0    0
SMALL
NO_CHARGES


@<TRIPOS>ATOM
   1 C1            -0.2184     1.3385     0.0460 C.ar    
   2 C2            -0.2864    -0.0400     0.0712 C.ar    
   3 C3             1.0153     1.9716    -0.0288 C.ar    
   4 C4             2.1807     1.2179    -0.0784 C.ar    
   5 C5             2.1126    -0.1607    -0.0532 C.ar    
   6 C6             0.8789    -0.7937     0.0216 C.ar    
   7 N7             0.8098    -2.1925     0.0472 N.am    
   8 C8             1.7545    -2.9022     0.6956 C.2     
   9 C9             1.6252    -4.3991     0.8120 C.3     
  10 O10            2.7088    -2.3360     1.1855 O.2     
  11 N11            1.0843     3.3704    -0.0548 N.am    
  12 C12            0.1786     4.1025     0.6236 C.2     
  13 C13            0.1819     5.6047     0.5038 C.3     
  14 O14           -0.6392     3.5522     1.3305 O.2     
  15 C15           -0.9382     6.1877     1.3678 C.3     
  16 C16           -0.9349     7.7128     1.2461 C.3     
  17 C17           -1.2825     8.1107    -0.1897 C.3     
  18 C18           -1.9716     8.3031     2.2041 C.3     
  19 C19            2.8204    -4.9554     1.5885 C.3     
  20 C20            2.6891    -6.4752     1.7067 C.3     
  21 C21            1.3951    -6.8192     2.4471 C.3     
  22 C22            0.1999    -6.2629     1.6706 C.3     
  23 C23            0.3312    -4.7431     1.5524 C.3     
  24 H24           -1.1249     1.9246     0.0800 H       
  25 H25           -1.2459    -0.5323     0.1298 H       
  26 H26            3.1401     1.7102    -0.1369 H       
  27 H27            3.0189    -0.7469    -0.0921 H       
  28 H28            0.0821    -2.6505    -0.4019 H       
  29 H29            1.6020    -4.8403    -0.1844 H       
  30 H30            1.7840     3.8121    -0.5610 H       
  31 H31            1.1420     5.9941     0.8423 H       
  32 H32            0.0221     5.8865    -0.5370 H       
  33 H33           -1.8983     5.7983     1.0292 H       
  34 H34           -0.7784     5.9058     2.4085 H       
  35 H35            0.0537     8.0954     1.5000 H       
  36 H36           -2.2711     7.7281    -0.4435 H       
  37 H37           -1.2801     9.1972    -0.2764 H       
  38 H38           -0.5439     7.6902    -0.8722 H       
  39 H39           -1.7239     8.0196     3.2271 H       
  40 H40           -1.9692     9.3896     2.1175 H       
  41 H41           -2.9601     7.9205     1.9503 H       
  42 H42            3.7423    -4.7103     1.0610 H       
  43 H43            2.8436    -4.5141     2.5849 H       
  44 H44            2.6659    -6.9164     0.7103 H       
  45 H45            3.5406    -6.8715     2.2598 H       
  46 H46            1.3016    -7.9019     2.5313 H       
  47 H47            1.4183    -6.3779     3.4435 H       
  48 H48            0.1767    -6.7042     0.6742 H       
  49 H49           -0.7219    -6.5080     2.1981 H       
  50 H50            0.3544    -4.3019     2.5488 H       
  51 H51           -0.5203    -4.3468     0.9992 H       
@<TRIPOS>BOND
   1    1    2 ar
   2    1    3 ar
   3    1   24 1
   4    2    6 ar
   5    2   25 1
   6    3    4 ar
   7    3   11 1
   8    4    5 ar
   9    4   26 1
  10    5    6 ar
  11    5   27 1
  12    6    7 1
  13    7    8 am
  14    7   28 1
  15    8    9 1
  16    8   10 2
  17    9   19 1
  18    9   23 1
  19    9   29 1
  20   11   12 am
  21   11   30 1
  22   12   13 1
  23   12   14 2
  24   13   15 1
  25   13   31 1
  26   13   32 1
  27   15   16 1
  28   15   33 1
  29   15   34 1
  30   16   17 1
  31   16   18 1
  32   16   35 1
  33   17   36 1
  34   17   37 1
  35   17   38 1
  36   18   39 1
  37   18   40 1
  38   18   41 1
  39   19   20 1
  40   19   42 1
  41   19   43 1
  42   20   21 1
  43   20   44 1
  44   20   45 1
  45   21   22 1
  46   21   46 1
  47   21   47 1
  48   22   23 1
  49   22   48 1
  50   22   49 1
  51   23   50 1
  52   23   51 1

#	End of record

