#	Name: ASD01840229
#	Creating user name:	WinNT
#	Creation time:	15. 06. 2019 19:37

#	Modifying user name:	WinNT
#	Modification time:	15. 06. 2019 19:37

#	Program:	/corina/corina34_cracker 3.40 0067  02.08.2006

@<TRIPOS>MOLECULE
ASD01840229
  52   55    0    0    0
SMALL
NO_CHARGES


@<TRIPOS>ATOM
   1 C1             0.3743     1.3596     1.1336 C.ar    
   2 C2             0.3500    -0.0297     1.0229 C.ar    
   3 N3             1.4073    -0.6948     0.6053 N.ar    
   4 C4             2.5450    -0.0783     0.2697 C.ar    
   5 C5             2.6383     1.3146     0.3566 C.ar    
   6 C6             1.5091     2.0407     0.8044 C.ar    
   7 S7             4.0653    -0.7513    -0.3065 S.3     
   8 C8             4.8093     0.8309    -0.4255 C.2     
   9 C9             3.9444     1.8054    -0.0472 C.2     
  10 C10            1.5599     3.5427     0.9158 C.3     
  11 N11            4.2779     3.1525    -0.0470 N.pl3   
  12 C12            6.1375     1.0617    -0.8583 C.2     
  13 O13            6.5726     2.1981    -0.9095 O.2     
  14 N14            6.9204     0.0237    -1.2138 N.am    
  15 C15            8.2947     0.2625    -1.6616 C.3     
  16 C16            8.9494    -1.0528    -1.9970 C.ar    
  17 C17            9.1386    -1.4136    -3.3178 C.ar    
  18 C18            9.7391    -2.6199    -3.6271 C.ar    
  19 C19           10.1519    -3.4674    -2.6164 C.ar    
  20 C20            9.9642    -3.1088    -1.2928 C.ar    
  21 C21            9.3664    -1.8969    -0.9825 C.ar    
  22 F22           10.3670    -3.9368    -0.3042 F       
  23 O23           -0.7785    -0.7063     1.3503 O.3     
  24 C24           -0.7440    -2.1286     1.2166 C.3     
  25 C25           -2.0968    -2.7125     1.6286 C.3     
  26 C26           -2.0604    -4.2125     1.4877 C.ar    
  27 C27           -1.6597    -5.0151     2.5448 C.ar    
  28 C28           -2.4324    -4.8230     0.2997 C.ar    
  29 C29           -2.3862    -6.2011     0.2074 C.ar    
  30 N30           -1.9948    -6.9330     1.2322 N.ar    
  31 C31           -1.6389    -6.3870     2.3786 C.ar    
  32 F32            9.1826    -1.5445     0.3088 F       
  33 H33           -0.5009     1.8934     1.4734 H       
  34 H34            1.3489     3.9865    -0.0572 H       
  35 H35            0.8155     3.8789     1.6375 H       
  36 H36            2.5519     3.8492     1.2475 H       
  37 H37            5.2087     3.4217    -0.0004 H       
  38 H38            3.5803     3.8249    -0.0934 H       
  39 H39            6.5739    -0.8813    -1.1730 H       
  40 H40            8.2831     0.8987    -2.5466 H       
  41 H41            8.8553     0.7552    -0.8672 H       
  42 H42            8.8167    -0.7526    -4.1089 H       
  43 H43            9.8854    -2.9004    -4.6598 H       
  44 H44           10.6205    -4.4096    -2.8594 H       
  45 H45           -0.5356    -2.3911     0.1795 H       
  46 H46            0.0377    -2.5350     1.8584 H       
  47 H47           -2.3053    -2.4500     2.6658 H       
  48 H48           -2.8786    -2.3062     0.9868 H       
  49 H49           -1.3671    -4.5739     3.4861 H       
  50 H50           -2.7545    -4.2290    -0.5429 H       
  51 H51           -2.6743    -6.6843    -0.7145 H       
  52 H52           -1.3239    -7.0189     3.1958 H       
@<TRIPOS>BOND
   1    1    2 ar
   2    1    6 ar
   3    1   33 1
   4    2    3 ar
   5    2   23 1
   6    3    4 ar
   7    4    5 ar
   8    4    7 1
   9    5    6 ar
  10    5    9 1
  11    6   10 1
  12    7    8 1
  13    8    9 2
  14    8   12 1
  15    9   11 1
  16   10   34 1
  17   10   35 1
  18   10   36 1
  19   11   37 1
  20   11   38 1
  21   12   13 2
  22   12   14 am
  23   14   15 1
  24   14   39 1
  25   15   16 1
  26   15   40 1
  27   15   41 1
  28   16   17 ar
  29   16   21 ar
  30   17   18 ar
  31   17   42 1
  32   18   19 ar
  33   18   43 1
  34   19   20 ar
  35   19   44 1
  36   20   21 ar
  37   20   22 1
  38   21   32 1
  39   23   24 1
  40   24   25 1
  41   24   45 1
  42   24   46 1
  43   25   26 1
  44   25   47 1
  45   25   48 1
  46   26   27 ar
  47   26   28 ar
  48   27   31 ar
  49   27   49 1
  50   28   29 ar
  51   28   50 1
  52   29   30 ar
  53   29   51 1
  54   30   31 ar
  55   31   52 1

#	End of record

