#	Name: ASD01901004
#	Creating user name:	WinNT
#	Creation time:	15. 06. 2019 19:53

#	Modifying user name:	WinNT
#	Modification time:	15. 06. 2019 19:53

#	Program:	/corina/corina34_cracker 3.40 0067  02.08.2006

@<TRIPOS>MOLECULE
ASD01901004
  32   33    0    0    0
SMALL
NO_CHARGES


@<TRIPOS>ATOM
   1 C1            -0.0225     1.8097     0.0120 C.3     
   2 S2             0.0021    -0.0041     0.0020 S.o2    
   3 O3             0.8448    -0.4970     1.0346 O.2     
   4 O4            -1.3093    -0.5195    -0.1821 O.2     
   5 N5             0.7961    -0.3989    -1.3965 N.am    
   6 C6             2.1294    -0.0620    -1.5541 C.ar    
   7 N7             2.8275    -0.6316    -2.5232 N.ar    
   8 C8             4.1145    -0.3278    -2.7008 C.ar    
   9 C9             4.7152     0.6048    -1.8439 C.ar    
  10 C10            3.9451     1.1727    -0.8466 C.ar    
  11 N11            2.6717     0.8266    -0.7338 N.ar    
  12 C12            4.8912    -0.9621    -3.7789 C.2     
  13 C13            4.3046    -1.8549    -4.5937 C.2     
  14 C14            5.0820    -2.4897    -5.6726 C.ar    
  15 C15            4.4752    -3.4188    -6.5221 C.ar    
  16 C16            5.2089    -4.0085    -7.5301 C.ar    
  17 C17            6.5428    -3.6822    -7.7013 C.ar    
  18 C18            7.1506    -2.7634    -6.8637 C.ar    
  19 C19            6.4281    -2.1613    -5.8551 C.ar    
  20 H20            1.0001     2.1870     0.0043 H       
  21 H21           -0.5497     2.1708    -0.8711 H       
  22 H22           -0.5327     2.1613     0.9088 H       
  23 H23            0.3269    -0.8662    -2.1053 H       
  24 H24            5.7549     0.8728    -1.9599 H       
  25 H25            4.3762     1.8948    -0.1690 H       
  26 H26            5.9325    -0.7097    -3.9147 H       
  27 H27            3.2634    -2.1073    -4.4579 H       
  28 H28            3.4343    -3.6747    -6.3894 H       
  29 H29            4.7415    -4.7269    -8.1871 H       
  30 H30            7.1124    -4.1472    -8.4923 H       
  31 H31            8.1921    -2.5140    -7.0032 H       
  32 H32            6.9024    -1.4408    -5.2052 H       
@<TRIPOS>BOND
   1    1    2 1
   2    1   20 1
   3    1   21 1
   4    1   22 1
   5    2    3 2
   6    2    4 2
   7    2    5 am
   8    5    6 1
   9    5   23 1
  10    6    7 ar
  11    6   11 ar
  12    7    8 ar
  13    8    9 ar
  14    8   12 1
  15    9   10 ar
  16    9   24 1
  17   10   11 ar
  18   10   25 1
  19   12   13 2
  20   12   26 1
  21   13   14 1
  22   13   27 1
  23   14   15 ar
  24   14   19 ar
  25   15   16 ar
  26   15   28 1
  27   16   17 ar
  28   16   29 1
  29   17   18 ar
  30   17   30 1
  31   18   19 ar
  32   18   31 1
  33   19   32 1

#	End of record

