#	Name: ASD01881245
#	Creating user name:	WinNT
#	Creation time:	15. 06. 2019 19:42

#	Modifying user name:	WinNT
#	Modification time:	15. 06. 2019 19:42

#	Program:	/corina/corina34_cracker 3.40 0067  02.08.2006

@<TRIPOS>MOLECULE
ASD01881245
  39   41    0    0    0
SMALL
NO_CHARGES


@<TRIPOS>ATOM
   1 N1            -0.0158     1.3147     0.0093 N.ar    
   2 C2             0.0021    -0.0041     0.0020 C.ar    
   3 N3             1.1328    -0.6835    -0.0120 N.ar    
   4 C4             2.3019    -0.0540    -0.0198 C.ar    
   5 C5             2.3189     1.3401    -0.0129 C.ar    
   6 C6             1.1112     2.0116     0.0023 C.ar    
   7 C7             3.6224     2.0962    -0.0208 C.3     
   8 O8             3.3586     3.5006    -0.0113 O.3     
   9 C9             4.4331     4.3295    -0.0168 C.ar    
  10 C10            4.2473     5.7085    -0.0082 C.ar    
  11 C11            5.3352     6.5458    -0.0133 C.ar    
  12 C12            6.6319     6.0214    -0.0271 C.ar    
  13 C13            6.8129     4.6356    -0.0353 C.ar    
  14 C14            5.7181     3.8002    -0.0252 C.ar    
  15 C15            5.4830     8.0470    -0.0069 C.3     
  16 N16            6.9253     8.3166    -0.0179 N.am    
  17 C17            7.5844     7.1453    -0.0296 C.2     
  18 O18            8.7947     7.0297    -0.0402 O.2     
  19 Cl19          -1.5030    -0.8692     0.0117 Cl      
  20 O20            3.4610    -0.7559    -0.0337 O.3     
  21 C21            3.3564    -2.1811    -0.0395 C.3     
  22 C22            7.7730    10.0994     1.4258 C.3     
  23 C23            7.5450     9.6441    -0.0170 C.3     
  24 H24            1.0862     3.0913     0.0076 H       
  25 H25            4.2025     1.8296     0.8627 H       
  26 H26            4.1865     1.8386    -0.9172 H       
  27 H27            3.2487     6.1195     0.0021 H       
  28 H28            7.8099     4.2205    -0.0464 H       
  29 H29            5.8587     2.7294    -0.0312 H       
  30 H30            5.0153     8.4733    -0.8944 H       
  31 H31            5.0307     8.4642     0.8928 H       
  32 H32            4.3546    -2.6186    -0.0507 H       
  33 H33            2.8255    -2.5100     0.8539 H       
  34 H34            2.8092    -2.5016    -0.9260 H       
  35 H35            8.2341    11.0871     1.4266 H       
  36 H36            6.8173    10.1442     1.9480 H       
  37 H37            8.4301     9.3913     1.9307 H       
  38 H38            8.5007     9.5993    -0.5392 H       
  39 H39            6.8879    10.3522    -0.5219 H       
@<TRIPOS>BOND
   1    1    2 ar
   2    1    6 ar
   3    2    3 ar
   4    2   19 1
   5    3    4 ar
   6    4    5 ar
   7    4   20 1
   8    5    6 ar
   9    5    7 1
  10    6   24 1
  11    7    8 1
  12    7   25 1
  13    7   26 1
  14    8    9 1
  15    9   10 ar
  16    9   14 ar
  17   10   11 ar
  18   10   27 1
  19   11   12 ar
  20   11   15 1
  21   12   13 ar
  22   12   17 1
  23   13   14 ar
  24   13   28 1
  25   14   29 1
  26   15   16 1
  27   15   30 1
  28   15   31 1
  29   16   17 am
  30   16   23 1
  31   17   18 2
  32   20   21 1
  33   21   32 1
  34   21   33 1
  35   21   34 1
  36   22   23 1
  37   22   35 1
  38   22   36 1
  39   22   37 1
  40   23   38 1
  41   23   39 1

#	End of record

