#	Name: ASD03731298
#	Creating user name:	WinNT
#	Creation time:	15. 06. 2019 20:45

#	Modifying user name:	WinNT
#	Modification time:	15. 06. 2019 20:45

#	Program:	/corina/corina34_cracker 3.40 0067  02.08.2006

@<TRIPOS>MOLECULE
ASD03731298
  60   65    0    0    0
SMALL
NO_CHARGES


@<TRIPOS>ATOM
   1 N1            -0.0162     1.3436     0.0094 N.am    
   2 C2             0.0021    -0.0041     0.0020 C.2     
   3 O3             1.0631    -0.5976    -0.0113 O.2     
   4 N4            -1.1558    -0.6938     0.0094 N.am    
   5 C5            -1.1360    -2.1586     0.0013 C.3     
   6 C6            -2.5713    -2.6882     0.0122 C.3     
   7 C7            -2.5509    -4.1950     0.0039 C.ar    
   8 C8            -2.5301    -4.8926     1.1972 C.ar    
   9 C9            -2.5113    -6.2748     1.1896 C.ar    
  10 C10           -2.5138    -6.9594    -0.0113 C.ar    
  11 C11           -2.5355    -6.2619    -1.2046 C.ar    
  12 C12           -2.5587    -4.8798    -1.1969 C.ar    
  13 C13            1.2424     2.0932     0.0014 C.3     
  14 C14            0.9425     3.5935     0.0124 C.3     
  15 O15            7.6135     2.0776    -2.1992 O.3     
  16 C16            8.9864     2.4295    -2.4527 C.3     
  17 O17            8.9067     3.7735    -2.9629 O.3     
  18 C18            7.7690     4.3025    -2.4238 C.ar    
  19 C19            6.9737     3.2591    -1.9553 C.ar    
  20 C20            7.3411     5.6114    -2.2918 C.ar    
  21 C21            6.1170     5.8961    -1.6943 C.ar    
  22 C22            5.3276     4.8450    -1.2377 C.ar    
  23 C23            5.7542     3.5392    -1.3622 C.ar    
  24 O24            5.5236     7.1003    -1.4533 O.3     
  25 C25            4.0742     5.4619    -0.6771 C.3     
  26 C26            4.1170     6.8980    -1.2168 C.3     
  27 N27            2.2011     4.3432     0.0044 N.am    
  28 C28            2.8367     4.7347    -1.1181 C.2     
  29 C29            4.0424     5.4282     0.8221 C.ar    
  30 C30            4.8782     5.9144     1.8026 C.ar    
  31 C31            4.5685     5.7189     3.1367 C.ar    
  32 C32            3.4181     5.0336     3.4830 C.ar    
  33 C33            2.5784     4.5438     2.5046 C.ar    
  34 C34            2.8820     4.7363     1.1591 C.ar    
  35 O35            2.4789     4.5384    -2.2602 O.2     
  36 H36           -0.8627     1.8171     0.0160 H       
  37 H37           -2.0023    -0.2203     0.0200 H       
  38 H38           -0.6258    -2.5101    -0.8955 H       
  39 H39           -0.6088    -2.5197     0.8844 H       
  40 H40           -3.0815    -2.3367     0.9090 H       
  41 H41           -3.0985    -2.3271    -0.8709 H       
  42 H42           -2.5282    -4.3576     2.1354 H       
  43 H43           -2.4943    -6.8197     2.1218 H       
  44 H44           -2.4984    -8.0393    -0.0173 H       
  45 H45           -2.5371    -6.7968    -2.1428 H       
  46 H46           -2.5794    -4.3349    -2.1292 H       
  47 H47            1.8260     1.8329     0.8845 H       
  48 H48            1.8090     1.8425    -0.8954 H       
  49 H49            0.3589     3.8538    -0.8707 H       
  50 H50            0.3759     3.8443     0.9091 H       
  51 H51            9.5650     2.4041    -1.5293 H       
  52 H52            9.4216     1.7625    -3.1969 H       
  53 H53            7.9611     6.4176    -2.6550 H       
  54 H54            5.1354     2.7332    -0.9965 H       
  55 H55            3.7442     7.6023    -0.4731 H       
  56 H56            3.5525     6.9794    -2.1457 H       
  57 H57            5.7760     6.4491     1.5299 H       
  58 H58            5.2233     6.1009     3.9060 H       
  59 H59            3.1765     4.8809     4.5245 H       
  60 H60            1.6822     4.0092     2.7829 H       
@<TRIPOS>BOND
   1    1    2 am
   2    1   13 1
   3    1   36 1
   4    2    3 2
   5    2    4 am
   6    4    5 1
   7    4   37 1
   8    5    6 1
   9    5   38 1
  10    5   39 1
  11    6    7 1
  12    6   40 1
  13    6   41 1
  14    7    8 ar
  15    7   12 ar
  16    8    9 ar
  17    8   42 1
  18    9   10 ar
  19    9   43 1
  20   10   11 ar
  21   10   44 1
  22   11   12 ar
  23   11   45 1
  24   12   46 1
  25   13   14 1
  26   13   47 1
  27   13   48 1
  28   14   27 1
  29   14   49 1
  30   14   50 1
  31   15   16 1
  32   15   19 1
  33   16   17 1
  34   16   51 1
  35   16   52 1
  36   17   18 1
  37   18   19 ar
  38   18   20 ar
  39   19   23 ar
  40   20   21 ar
  41   20   53 1
  42   21   22 ar
  43   21   24 1
  44   22   23 ar
  45   22   25 1
  46   23   54 1
  47   24   26 1
  48   25   26 1
  49   25   28 1
  50   25   29 1
  51   26   55 1
  52   26   56 1
  53   27   28 am
  54   27   34 1
  55   28   35 2
  56   29   30 ar
  57   29   34 ar
  58   30   31 ar
  59   30   57 1
  60   31   32 ar
  61   31   58 1
  62   32   33 ar
  63   32   59 1
  64   33   34 ar
  65   33   60 1

#	End of record

