#	Name: ASD01140290
#	Creating user name:	WinNT
#	Creation time:	15. 06. 2019 19:00

#	Modifying user name:	WinNT
#	Modification time:	15. 06. 2019 19:00

#	Program:	/corina/corina34_cracker 3.40 0067  02.08.2006

@<TRIPOS>MOLECULE
ASD01140290
  14   15    0    0    0
SMALL
NO_CHARGES


@<TRIPOS>ATOM
   1 C1            -0.0164     1.3559     0.0095 C.ar    
   2 C2             0.0021    -0.0041     0.0020 C.ar    
   3 C3             1.2001    -0.7216    -0.0128 C.ar    
   4 C4             2.4078    -0.0959    -0.0205 C.ar    
   5 C5             1.1984     2.0653     0.0017 C.ar    
   6 N6             1.5667     3.3362     0.0046 N.2     
   7 C7             2.4598     1.3098    -0.0139 C.ar    
   8 N8             3.4064     2.2345    -0.0185 N.2     
   9 N9             2.8528     3.3968    -0.0076 N.pl3   
  10 Br10          -1.6627     2.2862     0.0224 Br      
  11 Br11          -1.6367    -0.9476     0.0126 Br      
  12 Br12           1.1418    -2.6117    -0.0218 Br      
  13 Br13           4.0049    -1.1082    -0.0393 Br      
  14 H14            3.3512     4.2290    -0.0086 H       
@<TRIPOS>BOND
   1    1    2 ar
   2    1    5 ar
   3    1   10 1
   4    2    3 ar
   5    2   11 1
   6    3    4 ar
   7    3   12 1
   8    4    7 ar
   9    4   13 1
  10    5    7 ar
  11    5    6 2
  12    6    9 1
  13    7    8 2
  14    8    9 1
  15    9   14 1

#	End of record

