#	Name: ASD01912948
#	Creating user name:	WinNT
#	Creation time:	15. 06. 2019 20:00

#	Modifying user name:	WinNT
#	Modification time:	15. 06. 2019 20:00

#	Program:	/corina/corina34_cracker 3.40 0067  02.08.2006

@<TRIPOS>MOLECULE
ASD01912948
  28   30    0    0    0
SMALL
NO_CHARGES


@<TRIPOS>ATOM
   1 C1            -0.0173     1.4278     0.0099 C.2     
   2 C2             0.0021    -0.0041     0.0020 C.1     
   3 C3             0.0180    -1.1779    -0.0044 C.1     
   4 C4             0.0374    -2.6098    -0.0123 C.ar    
   5 C5            -1.1617    -3.3293    -0.0047 C.ar    
   6 C6             1.2572    -3.2973    -0.0334 C.ar    
   7 C7             1.2659    -4.6792    -0.0409 C.ar    
   8 C8             0.0744    -5.3812    -0.0279 C.ar    
   9 C9            -1.1351    -4.7075    -0.0123 C.ar    
  10 N10            1.0417     2.1987     0.0039 N.2     
  11 C11            0.8594     3.4898     0.0123 C.2     
  12 C12           -0.4743     3.8658     0.0281 C.2     
  13 S13           -1.4699     2.4260     0.0215 S.3     
  14 C14            1.9378     4.5633     0.0045 C.3     
  15 C15            1.3981     5.7955    -0.7178 C.3     
  16 N16            0.0735     6.1866    -0.2540 N.am    
  17 C17           -0.8821     5.2746     0.0421 C.2     
  18 O18           -2.0228     5.6071     0.3064 O.2     
  19 F19            2.4214    -2.6120    -0.0470 F       
  20 H20           -2.1066    -2.8063     0.0074 H       
  21 H21            2.2052    -5.2120    -0.0571 H       
  22 H22            0.0875    -6.4611    -0.0342 H       
  23 H23           -2.0608    -5.2637    -0.0020 H       
  24 H24            2.1995     4.8259     1.0295 H       
  25 H25            2.8200     4.1914    -0.5165 H       
  26 H26            2.0859     6.6259    -0.5583 H       
  27 H27            1.3482     5.5832    -1.7858 H       
  28 H28           -0.1300     7.1298    -0.1544 H       
@<TRIPOS>BOND
   1    1    2 1
   2    1   10 2
   3    1   13 1
   4    2    3 3
   5    3    4 1
   6    4    5 ar
   7    4    6 ar
   8    5    9 ar
   9    5   20 1
  10    6    7 ar
  11    6   19 1
  12    7    8 ar
  13    7   21 1
  14    8    9 ar
  15    8   22 1
  16    9   23 1
  17   10   11 1
  18   11   12 2
  19   11   14 1
  20   12   13 1
  21   12   17 1
  22   14   15 1
  23   14   24 1
  24   14   25 1
  25   15   16 1
  26   15   26 1
  27   15   27 1
  28   16   17 am
  29   16   28 1
  30   17   18 2

#	End of record

