#	Name: ASD01870731
#	Creating user name:	WinNT
#	Creation time:	15. 06. 2019 19:39

#	Modifying user name:	WinNT
#	Modification time:	15. 06. 2019 19:39

#	Program:	/corina/corina34_cracker 3.40 0067  02.08.2006

@<TRIPOS>MOLECULE
ASD01870731
  46   49    0    0    0
SMALL
NO_CHARGES


@<TRIPOS>ATOM
   1 S1             0.5215     1.2490     0.3131 S.3     
   2 O2            -1.2707    -2.3140     0.5586 O.2     
   3 N3            -2.1831    -0.4361    -0.2018 N.am    
   4 N4             2.4253    -0.2690     0.9552 N.pl3   
   5 N5             3.3558     1.7301     0.8776 N.2     
   6 N6             6.7025    -2.4346     2.2203 N.pl3   
   7 C7            -3.4656    -1.1036    -0.4384 C.3     
   8 C8            -4.5505    -0.4399     0.4120 C.3     
   9 C9            -3.8355    -0.9874    -1.9185 C.3     
  10 C10           -5.8899    -1.1369     0.1649 C.3     
  11 C11           -5.1749    -1.6845    -2.1656 C.3     
  12 C12           -6.2598    -1.0207    -1.3151 C.3     
  13 C13           -1.1385    -1.1362     0.2832 C.2     
  14 C14           -2.0361     0.9922    -0.4923 C.3     
  15 C15            0.1585    -0.4779     0.4790 C.2     
  16 C16            1.3193    -1.0561     0.8208 C.2     
  17 C17            2.2357     1.0660     0.7221 C.2     
  18 C18            3.7813    -0.4119     1.2783 C.ar    
  19 C19            4.3478     0.8688     1.2223 C.ar    
  20 C20            1.4001    -2.5432     1.0511 C.3     
  21 C21            4.5620    -1.5076     1.6094 C.ar    
  22 C22            5.7080     1.0342     1.5024 C.ar    
  23 C23            5.9088    -1.3311     1.8852 C.ar    
  24 C24            6.4758    -0.0600     1.8301 C.ar    
  25 H25           -3.3833    -2.1558    -0.1660 H       
  26 H26           -4.2869    -0.5226     1.4665 H       
  27 H27           -4.6328     0.6123     0.1396 H       
  28 H28           -3.9178     0.0648    -2.1909 H       
  29 H29           -3.0626    -1.4603    -2.5244 H       
  30 H30           -5.8076    -2.1891     0.4374 H       
  31 H31           -6.6628    -0.6641     0.7708 H       
  32 H32           -5.4384    -1.6017    -3.2200 H       
  33 H33           -5.0926    -2.7367    -1.8932 H       
  34 H34           -7.2140    -1.5173    -1.4912 H       
  35 H35           -6.3421     0.0314    -1.5876 H       
  36 H36           -2.1805     1.5659     0.4232 H       
  37 H37           -1.0377     1.1820    -0.8863 H       
  38 H38           -2.7807     1.2915    -1.2299 H       
  39 H39            1.1981    -2.7600     2.1000 H       
  40 H40            0.6626    -3.0481     0.4271 H       
  41 H41            2.3981    -2.8971     0.7926 H       
  42 H42            4.1235    -2.4937     1.6528 H       
  43 H43            6.1542     2.0168     1.4614 H       
  44 H44            7.5262     0.0680     2.0463 H       
  45 H45            6.3096    -3.3206     2.2592 H       
  46 H46            7.6452    -2.3132     2.4136 H       
@<TRIPOS>BOND
   1    1   15 1
   2    1   17 1
   3    2   13 2
   4    3    7 1
   5    3   13 am
   6    3   14 1
   7    4   16 1
   8    4   17 1
   9    4   18 1
  10    5   17 2
  11    5   19 1
  12    6   23 1
  13    6   45 1
  14    6   46 1
  15    7    8 1
  16    7    9 1
  17    7   25 1
  18    8   10 1
  19    8   26 1
  20    8   27 1
  21    9   11 1
  22    9   28 1
  23    9   29 1
  24   10   12 1
  25   10   30 1
  26   10   31 1
  27   11   12 1
  28   11   32 1
  29   11   33 1
  30   12   34 1
  31   12   35 1
  32   13   15 1
  33   14   36 1
  34   14   37 1
  35   14   38 1
  36   15   16 2
  37   16   20 1
  38   18   19 ar
  39   18   21 ar
  40   19   22 ar
  41   20   39 1
  42   20   40 1
  43   20   41 1
  44   21   23 ar
  45   21   42 1
  46   22   24 ar
  47   22   43 1
  48   23   24 ar
  49   24   44 1

#	End of record

