#	Name: ASD01209353
#	Creating user name:	WinNT
#	Creation time:	15. 06. 2019 19:11

#	Modifying user name:	WinNT
#	Modification time:	15. 06. 2019 19:11

#	Program:	/corina/corina34_cracker 3.40 0067  02.08.2006

@<TRIPOS>MOLECULE
ASD01209353
  71   75    0    0    0
SMALL
NO_CHARGES


@<TRIPOS>ATOM
   1 C1             2.1438     1.1801     1.9200 C.2     
   2 C2             1.8637    -0.2281     1.5835 C.ar    
   3 C3             2.7077    -1.2512     2.0421 C.ar    
   4 C4             2.4088    -2.5443     1.7051 C.ar    
   5 C5             1.2857    -2.8049     0.9238 C.ar    
   6 N6             0.5047    -1.8202     0.5030 N.ar    
   7 C7             0.7516    -0.5637     0.8088 C.ar    
   8 O8             3.1113     1.4616     2.5990 O.2     
   9 O9             1.3300     2.1551     1.4699 O.3     
  10 N10            0.9798    -4.1160     0.5802 N.am    
  11 C11            1.9051    -5.0847     0.7278 C.2     
  12 O12            3.0343    -4.7984     1.0648 O.2     
  13 C13            1.5366    -6.5238     0.4741 C.3     
  14 S14            3.0205    -7.5594     0.6009 S.3     
  15 N15            1.0718    -9.0653    -0.5007 N.am    
  16 C16            2.4409    -9.1760     0.0167 C.3     
  17 C17            3.2889    -9.6448    -1.1432 C.2     
  18 C18            2.4517    -9.7792    -2.2072 C.2     
  19 C19            1.0889    -9.4192    -1.7983 C.2     
  20 C20            2.8522   -10.2191    -3.5633 C.ar    
  21 C21            2.3686   -11.4207    -4.0811 C.ar    
  22 C22            2.7451   -11.8249    -5.3455 C.ar    
  23 C23            3.6007   -11.0414    -6.0992 C.ar    
  24 C24            4.0841    -9.8488    -5.5911 C.ar    
  25 C25            3.7101    -9.4307    -4.3305 C.ar    
  26 C26            4.7350    -9.9041    -1.1254 C.ar    
  27 C27            5.6006    -9.1165    -1.8930 C.ar    
  28 C28            6.9562    -9.3662    -1.8702 C.ar    
  29 C29            7.4618   -10.3926    -1.0911 C.ar    
  30 C30            6.6125   -11.1763    -0.3290 C.ar    
  31 C31            5.2550   -10.9365    -0.3363 C.ar    
  32 O32            0.1153    -9.4390    -2.5272 O.2     
  33 C33           -0.1068    -8.6489     0.2632 C.3     
  34 C34           -0.8953    -9.8659     0.6734 C.ar    
  35 C35           -0.6315   -10.4841     1.8817 C.ar    
  36 C36           -1.3529   -11.5998     2.2600 C.ar    
  37 C37           -2.3427   -12.0999     1.4265 C.ar    
  38 C38           -2.6054   -11.4778     0.2146 C.ar    
  39 C39           -1.8851   -10.3590    -0.1566 C.ar    
  40 O40           -3.0535   -13.1976     1.7962 O.3     
  41 C41           -3.9751   -13.7260     0.8404 C.3     
  42 C42            1.6667     3.5181     1.8400 C.3     
  43 H43            3.5733    -1.0239     2.6466 H       
  44 H44            3.0384    -3.3547     2.0418 H       
  45 H45            0.0918     0.2140     0.4535 H       
  46 H46            0.1003    -4.3341     0.2341 H       
  47 H47            0.8037    -6.8469     1.2134 H       
  48 H48            1.1112    -6.6192    -0.5249 H       
  49 H49            2.4779    -9.9031     0.8279 H       
  50 H50            1.7013   -12.0336    -3.4934 H       
  51 H51            2.3714   -12.7550    -5.7475 H       
  52 H52            3.8928   -11.3622    -7.0883 H       
  53 H53            4.7519    -9.2416    -6.1841 H       
  54 H54            4.0842    -8.4972    -3.9368 H       
  55 H55            5.2077    -8.3155    -2.5017 H       
  56 H56            7.6255    -8.7596    -2.4622 H       
  57 H57            8.5247   -10.5832    -1.0780 H       
  58 H58            7.0150   -11.9751     0.2762 H       
  59 H59            4.5942   -11.5462     0.2620 H       
  60 H60            0.2105    -8.1047     1.1528 H       
  61 H61           -0.7307    -8.0030    -0.3546 H       
  62 H62            0.1393   -10.0946     2.5301 H       
  63 H63           -1.1463   -12.0826     3.2038 H       
  64 H64           -3.3755   -11.8652    -0.4361 H       
  65 H65           -2.0924    -9.8715    -1.0977 H       
  66 H66           -4.7644   -12.9973     0.6554 H       
  67 H67           -3.4507   -13.9380    -0.0914 H       
  68 H68           -4.4133   -14.6457     1.2280 H       
  69 H69            1.6625     3.6113     2.9260 H       
  70 H70            2.6576     3.7641     1.4581 H       
  71 H71            0.9329     4.2022     1.4138 H       
@<TRIPOS>BOND
   1    1    2 1
   2    1    8 2
   3    1    9 1
   4    2    3 ar
   5    2    7 ar
   6    3    4 ar
   7    3   43 1
   8    4    5 ar
   9    4   44 1
  10    5    6 ar
  11    5   10 1
  12    6    7 ar
  13    7   45 1
  14    9   42 1
  15   10   11 am
  16   10   46 1
  17   11   12 2
  18   11   13 1
  19   13   14 1
  20   13   47 1
  21   13   48 1
  22   14   16 1
  23   15   16 1
  24   15   19 am
  25   15   33 1
  26   16   17 1
  27   16   49 1
  28   17   18 2
  29   17   26 1
  30   18   19 1
  31   18   20 1
  32   19   32 2
  33   20   21 ar
  34   20   25 ar
  35   21   22 ar
  36   21   50 1
  37   22   23 ar
  38   22   51 1
  39   23   24 ar
  40   23   52 1
  41   24   25 ar
  42   24   53 1
  43   25   54 1
  44   26   27 ar
  45   26   31 ar
  46   27   28 ar
  47   27   55 1
  48   28   29 ar
  49   28   56 1
  50   29   30 ar
  51   29   57 1
  52   30   31 ar
  53   30   58 1
  54   31   59 1
  55   33   34 1
  56   33   60 1
  57   33   61 1
  58   34   35 ar
  59   34   39 ar
  60   35   36 ar
  61   35   62 1
  62   36   37 ar
  63   36   63 1
  64   37   38 ar
  65   37   40 1
  66   38   39 ar
  67   38   64 1
  68   39   65 1
  69   40   41 1
  70   41   66 1
  71   41   67 1
  72   41   68 1
  73   42   69 1
  74   42   70 1
  75   42   71 1

#	End of record

