#	Name: ASD01885788
#	Creating user name:	WinNT
#	Creation time:	15. 06. 2019 19:50

#	Modifying user name:	WinNT
#	Modification time:	15. 06. 2019 19:50

#	Program:	/corina/corina34_cracker 3.40 0067  02.08.2006

@<TRIPOS>MOLECULE
ASD01885788
  59   61    0    0    0
SMALL
NO_CHARGES


@<TRIPOS>ATOM
   1 C1            -0.3426     1.3276     1.1193 C.ar    
   2 C2            -1.5071     2.1366     1.0962 C.ar    
   3 C3            -2.7682     1.5354     1.3381 C.ar    
   4 C4            -2.7999     0.1703     1.5881 C.ar    
   5 C5            -1.6046    -0.5574     1.5933 C.ar    
   6 N6            -0.4406     0.0209     1.3653 N.ar    
   7 C7             0.9813     3.2608     0.6247 C.ar    
   8 C8            -0.1650     4.0526     0.6092 C.ar    
   9 C9            -1.3936     3.5084     0.8369 C.ar    
  10 C10           -4.0122     2.3385     1.3250 C.ar    
  11 C11           -1.6471    -2.0153     1.8612 C.2     
  12 C12            2.3241     3.8952     0.3688 C.3     
  13 N13            2.9064     4.3393     1.6422 N.3     
  14 C14            0.9084     1.9251     0.8736 C.ar    
  15 N15           -0.5060    -2.7325     1.8697 N.am    
  16 O16           -2.7106    -2.5632     2.0730 O.2     
  17 C17            4.2525     4.8935     1.4409 C.3     
  18 C18            4.8543     5.2702     2.7968 C.3     
  19 N19            3.9806     6.2457     3.4636 N.3     
  20 C20            2.6345     5.6915     3.6650 C.3     
  21 C21            2.0328     5.3148     2.3091 C.3     
  22 C22            5.1389     3.8475     0.7619 C.3     
  23 F23            4.6729     3.6132    -0.5363 F       
  24 F24            6.4557     4.3167     0.7071 F       
  25 F25            5.0985     2.6560     1.4939 F       
  26 C26           -5.1090     1.9176     0.5724 C.ar    
  27 C27           -6.2656     2.6688     0.5638 C.ar    
  28 C28           -6.3394     3.8401     1.3011 C.ar    
  29 C29           -5.2524     4.2626     2.0500 C.ar    
  30 C30           -4.0933     3.5154     2.0697 C.ar    
  31 F31           -7.4745     4.5725     1.2895 F       
  32 H32           -3.7400    -0.3264     1.7776 H       
  33 H33           -0.0789     5.1113     0.4141 H       
  34 H34           -2.2754     4.1317     0.8171 H       
  35 H35            2.9866     3.1671    -0.0993 H       
  36 H36            2.2008     4.7525    -0.2929 H       
  37 H37            1.8067     1.3256     0.8830 H       
  38 H38            0.3430    -2.2950     1.7005 H       
  39 H39           -0.5338    -3.6861     2.0449 H       
  40 H40            4.1899     5.7813     0.8116 H       
  41 H41            4.9422     4.3776     3.4162 H       
  42 H42            5.8412     5.7082     2.6476 H       
  43 H43            4.3806     6.5507     4.3383 H       
  44 H44            2.6972     4.8037     4.2943 H       
  45 H45            2.0031     6.4367     4.1487 H       
  46 H46            1.9449     6.2074     1.6896 H       
  47 H47            1.0459     4.8768     2.4583 H       
  48 H48           -5.0523     1.0052    -0.0027 H       
  49 H49           -7.1150     2.3440    -0.0187 H       
  50 H50           -5.3145     5.1764     2.6223 H       
  51 H51           -3.2468     3.8455     2.6535 H       
  52 C52           12.4575    13.4579    10.2435 C.3     
  53 C53           12.4783    11.9280    10.2351 C.3     
  54 H54           13.4801    13.8351    10.2357 H       
  55 H55           11.9304    13.8189     9.3604 H       
  56 H56           11.9474    13.8094    11.1403 H       
  57 H57           13.0055    11.5669    11.1181 H       
  58 H58           11.4557    11.5507    10.2428 H       
  59 H59           12.9885    11.5765     9.3383 H       
@<TRIPOS>BOND
   1    1    6 ar
   2    1   14 ar
   3    1    2 ar
   4    2    3 ar
   5    2    9 ar
   6    3   10 1
   7    3    4 ar
   8    4    5 ar
   9    4   32 1
  10    5   11 1
  11    5    6 ar
  12    7   12 1
  13    7    8 ar
  14    7   14 ar
  15    8    9 ar
  16    8   33 1
  17    9   34 1
  18   10   26 ar
  19   10   30 ar
  20   11   15 am
  21   11   16 2
  22   12   13 1
  23   12   35 1
  24   12   36 1
  25   13   17 1
  26   13   21 1
  27   14   37 1
  28   15   38 1
  29   15   39 1
  30   17   18 1
  31   17   22 1
  32   17   40 1
  33   18   19 1
  34   18   41 1
  35   18   42 1
  36   19   20 1
  37   19   43 1
  38   20   21 1
  39   20   44 1
  40   20   45 1
  41   21   46 1
  42   21   47 1
  43   22   23 1
  44   22   24 1
  45   22   25 1
  46   26   27 ar
  47   26   48 1
  48   27   28 ar
  49   27   49 1
  50   28   29 ar
  51   28   31 1
  52   29   30 ar
  53   29   50 1
  54   30   51 1
  55   52   53 1
  56   52   54 1
  57   52   55 1
  58   52   56 1
  59   53   57 1
  60   53   58 1
  61   53   59 1

#	End of record

