#	Name: ASD01914702
#	Creating user name:	WinNT
#	Creation time:	15. 06. 2019 20:04

#	Modifying user name:	WinNT
#	Modification time:	15. 06. 2019 20:04

#	Program:	/corina/corina34_cracker 3.40 0067  02.08.2006

@<TRIPOS>MOLECULE
ASD01914702
  42   45    0    0    0
SMALL
NO_CHARGES


@<TRIPOS>ATOM
   1 C1            -0.0169     1.3931     0.0097 C.ar    
   2 C2             0.0021    -0.0041     0.0020 C.ar    
   3 C3             1.2253    -0.6794    -0.0133 C.ar    
   4 C4             2.4042     0.0364    -0.0207 C.ar    
   5 C5             2.3776     1.4199    -0.0130 C.ar    
   6 C6             1.1701     2.0955     0.0021 C.ar    
   7 C7            -1.2261    -0.7403     0.0103 C.1     
   8 C8            -2.2331    -1.3439     0.0170 C.1     
   9 C9            -3.4613    -2.0802     0.0253 C.ar    
  10 C10           -3.4423    -3.4772     0.0176 C.ar    
  11 C11           -4.6294    -4.1797     0.0256 C.ar    
  12 C12           -5.8368    -3.5042     0.0411 C.ar    
  13 C13           -5.8634    -2.1204     0.0484 C.ar    
  14 C14           -4.6846    -1.4048     0.0468 C.ar    
  15 C15           -7.1837    -1.3941     0.0643 C.3     
  16 C16           -7.7654    -1.3599     1.4908 C.3     
  17 O17           -9.0269    -2.0797     1.3746 O.3     
  18 C18           -9.1947    -2.4844     0.1107 C.2     
  19 N19           -8.1916    -2.1373    -0.7073 N.am    
  20 O20          -10.1676    -3.1100    -0.2616 O.2     
  21 C21           -8.0068     0.0617     1.9289 C.ar    
  22 C22           -7.0528     0.7385     2.6729 C.ar    
  23 C23           -7.3178     2.0454     3.0536 C.ar    
  24 C24           -8.5154     2.6255     2.6813 C.ar    
  25 N25           -9.4004     1.9511     1.9733 N.ar    
  26 C26           -9.1799     0.7092     1.5891 C.ar    
  27 H27           -0.9587     1.9217     0.0170 H       
  28 H28            1.2476    -1.7591    -0.0189 H       
  29 H29            3.3504    -0.4841    -0.0322 H       
  30 H30            3.3040     1.9752    -0.0185 H       
  31 H31            1.1570     3.1754     0.0077 H       
  32 H32           -2.5006    -4.0057     0.0051 H       
  33 H33           -4.6164    -5.2596     0.0193 H       
  34 H34           -6.7631    -4.0594     0.0473 H       
  35 H35           -4.7069    -0.3250     0.0525 H       
  36 H36           -7.0680    -0.3831    -0.3264 H       
  37 H37           -7.0986    -1.8675     2.1877 H       
  38 H38           -8.1387    -2.3428    -1.6538 H       
  39 H39           -6.1255     0.2592     2.9498 H       
  40 H40           -6.5974     2.6026     3.6340 H       
  41 H41           -8.7293     3.6429     2.9738 H       
  42 H42           -9.9284     0.1887     1.0101 H       
@<TRIPOS>BOND
   1    1    2 ar
   2    1    6 ar
   3    1   27 1
   4    2    3 ar
   5    2    7 1
   6    3    4 ar
   7    3   28 1
   8    4    5 ar
   9    4   29 1
  10    5    6 ar
  11    5   30 1
  12    6   31 1
  13    7    8 3
  14    8    9 1
  15    9   10 ar
  16    9   14 ar
  17   10   11 ar
  18   10   32 1
  19   11   12 ar
  20   11   33 1
  21   12   13 ar
  22   12   34 1
  23   13   14 ar
  24   13   15 1
  25   14   35 1
  26   15   16 1
  27   15   19 1
  28   15   36 1
  29   16   17 1
  30   16   21 1
  31   16   37 1
  32   17   18 1
  33   18   19 am
  34   18   20 2
  35   19   38 1
  36   21   22 ar
  37   21   26 ar
  38   22   23 ar
  39   22   39 1
  40   23   24 ar
  41   23   40 1
  42   24   25 ar
  43   24   41 1
  44   25   26 ar
  45   26   42 1

#	End of record

