#	Name: ASD01148332
#	Creating user name:	WinNT
#	Creation time:	15. 06. 2019 19:02

#	Modifying user name:	WinNT
#	Modification time:	15. 06. 2019 19:02

#	Program:	/corina/corina34_cracker 3.40 0067  02.08.2006

@<TRIPOS>MOLECULE
ASD01148332
  53   55    0    0    0
SMALL
NO_CHARGES


@<TRIPOS>ATOM
   1 C1            -0.4096     1.8306    -0.0443 C.ar    
   2 C2            -0.4706     0.4509     0.0156 C.ar    
   3 C3             0.6940    -0.2896     0.0947 C.ar    
   4 C4             1.9196     0.3496     0.1133 C.ar    
   5 C5             1.9806     1.7292     0.0525 C.ar    
   6 C6             0.8159     2.4698    -0.0251 C.ar    
   7 C7             3.3166     2.4260     0.0734 C.3     
   8 O8             4.3314     1.6154    -0.5533 O.3     
   9 C9             3.3038     3.6757    -0.8390 C.3     
  10 C10            3.8458     3.1337    -2.1480 C.2     
  11 N11            4.3970     1.9899    -1.9151 N.2     
  12 C12            3.7577     3.7996    -3.4624 C.ar    
  13 C13            4.3018     3.1866    -4.5942 C.ar    
  14 C14            3.1253     5.0401    -3.5761 C.ar    
  15 C15            3.0432     5.6611    -4.8021 C.ar    
  16 C16            3.5918     5.0507    -5.9323 C.ar    
  17 C17            4.2195     3.8076    -5.8197 C.ar    
  18 C18            3.5027     5.7170    -7.2486 C.2     
  19 O19            4.0748     5.2420    -8.2102 O.2     
  20 N20            2.7872     6.8513    -7.3826 N.am    
  21 C21            4.8117     3.1494    -7.0392 C.3     
  22 C22            3.7163     2.7951     1.5034 C.3     
  23 F23            3.7867     1.6350     2.2821 F       
  24 F24            4.9655     3.4247     1.4906 F       
  25 F25            2.7621     3.6631     2.0450 F       
  26 C26            2.6990     7.5117    -8.6873 C.3     
  27 C27            1.8472     8.7491    -8.5674 C.2     
  28 N28            1.6249     9.5217    -9.6491 N.am    
  29 O29            1.3616     9.0497    -7.4974 O.2     
  30 C30            0.7969    10.7246    -9.5325 C.3     
  31 C31            0.7047    11.4144   -10.8951 C.3     
  32 F32            0.1285    10.5397   -11.8225 F       
  33 F33           -0.0860    12.5631   -10.7837 F       
  34 F34            1.9874    11.7710   -11.3249 F       
  35 H35           -1.3193     2.4089    -0.1106 H       
  36 H36           -1.4281    -0.0485     0.0010 H       
  37 H37            0.6463    -1.3675     0.1422 H       
  38 H38            2.8294    -0.2290     0.1758 H       
  39 H39            0.8636     3.5477    -0.0730 H       
  40 H40            2.2885     4.0513    -0.9665 H       
  41 H41            3.9576     4.4519    -0.4413 H       
  42 H42            4.7871     2.2257    -4.5072 H       
  43 H43            2.7005     5.5118    -2.7023 H       
  44 H44            2.5544     6.6201    -4.8901 H       
  45 H45            2.3307     7.2303    -6.6153 H       
  46 H46            5.8086     3.5512    -7.2210 H       
  47 H47            4.8778     2.0738    -6.8755 H       
  48 H48            4.1772     3.3472    -7.9031 H       
  49 H49            3.6983     7.7896    -9.0222 H       
  50 H50            2.2500     6.8302    -9.4099 H       
  51 H51            2.0133     9.2813   -10.5049 H       
  52 H52           -0.2025    10.4467    -9.1976 H       
  53 H53            1.2458    11.4061    -8.8099 H       
@<TRIPOS>BOND
   1    1    2 ar
   2    1    6 ar
   3    1   35 1
   4    2    3 ar
   5    2   36 1
   6    3    4 ar
   7    3   37 1
   8    4    5 ar
   9    4   38 1
  10    5    6 ar
  11    5    7 1
  12    6   39 1
  13    7    8 1
  14    7    9 1
  15    7   22 1
  16    8   11 1
  17    9   10 1
  18    9   40 1
  19    9   41 1
  20   10   11 2
  21   10   12 1
  22   12   13 ar
  23   12   14 ar
  24   13   17 ar
  25   13   42 1
  26   14   15 ar
  27   14   43 1
  28   15   16 ar
  29   15   44 1
  30   16   17 ar
  31   16   18 1
  32   17   21 1
  33   18   19 2
  34   18   20 am
  35   20   26 1
  36   20   45 1
  37   21   46 1
  38   21   47 1
  39   21   48 1
  40   22   23 1
  41   22   24 1
  42   22   25 1
  43   26   27 1
  44   26   49 1
  45   26   50 1
  46   27   29 2
  47   27   28 am
  48   28   30 1
  49   28   51 1
  50   30   31 1
  51   30   52 1
  52   30   53 1
  53   31   32 1
  54   31   33 1
  55   31   34 1

#	End of record

