#	Name: ASD03091859
#	Creating user name:	WinNT
#	Creation time:	15. 06. 2019 20:31

#	Modifying user name:	WinNT
#	Modification time:	15. 06. 2019 20:31

#	Program:	/corina/corina34_cracker 3.40 0067  02.08.2006

@<TRIPOS>MOLECULE
ASD03091859
  31   32    0    0    0
SMALL
NO_CHARGES


@<TRIPOS>ATOM
   1 C1            -0.0751     1.0460     0.0467 C.3     
   2 N2            -0.7461     1.5535    -1.1526 N.pl3   
   3 C3            -0.9919     2.9930    -1.3295 C.3     
   4 C4            -2.4814     3.1917    -1.6331 C.3     
   5 C5            -2.7277     4.6413    -2.0563 C.3     
   6 O6            -3.2500     2.8974    -0.4649 O.3     
   7 C7            -2.8883     2.2652    -2.7501 C.2     
   8 O8            -3.8078     2.5743    -3.4835 O.2     
   9 C9            -2.2213     1.0580    -2.9514 C.2     
  10 C10           -1.1592     0.6970    -2.1484 C.2     
  11 C11           -0.4690    -0.5904    -2.3586 C.ar    
  12 C12            0.9268    -0.6406    -2.3951 C.ar    
  13 C13            1.5653    -1.8466    -2.5920 C.ar    
  14 C14            0.8262    -3.0067    -2.7538 C.ar    
  15 Br15           1.7105    -4.6562    -3.0239 Br      
  16 C16           -0.5576    -2.9640    -2.7182 C.ar    
  17 C17           -1.2085    -1.7654    -2.5163 C.ar    
  18 H18           -0.0677    -0.0437     0.0253 H       
  19 H19            0.9499     1.4159     0.0736 H       
  20 H20           -0.6083     1.3884     0.9337 H       
  21 H21           -0.7287     3.5259    -0.4158 H       
  22 H22           -0.3942     3.3687    -2.1600 H       
  23 H23           -2.1426     4.8637    -2.9486 H       
  24 H24           -3.7869     4.7818    -2.2719 H       
  25 H25           -2.4292     5.3110    -1.2497 H       
  26 H26           -4.2038     3.0023    -0.5849 H       
  27 H27           -2.5398     0.3978    -3.7446 H       
  28 H28            1.5043     0.2634    -2.2698 H       
  29 H29            2.6442    -1.8868    -2.6204 H       
  30 H30           -1.1281    -3.8723    -2.8450 H       
  31 H31           -2.2877    -1.7336    -2.4885 H       
@<TRIPOS>BOND
   1    1   18 1
   2    1   19 1
   3    1   20 1
   4    1    2 1
   5    2   10 1
   6    2    3 1
   7    3    4 1
   8    3   21 1
   9    3   22 1
  10    4    7 1
  11    4    5 1
  12    4    6 1
  13    5   23 1
  14    5   24 1
  15    5   25 1
  16    6   26 1
  17    7    8 2
  18    7    9 1
  19    9   10 2
  20    9   27 1
  21   10   11 1
  22   11   12 ar
  23   11   17 ar
  24   12   13 ar
  25   12   28 1
  26   13   29 1
  27   13   14 ar
  28   14   15 1
  29   14   16 ar
  30   16   30 1
  31   16   17 ar
  32   17   31 1

#	End of record

