#	Name: ASD01410395
#	Creating user name:	WinNT
#	Creation time:	15. 06. 2019 19:17

#	Modifying user name:	WinNT
#	Modification time:	15. 06. 2019 19:17

#	Program:	/corina/corina34_cracker 3.40 0067  02.08.2006

@<TRIPOS>MOLECULE
ASD01410395
  38   40    0    0    0
SMALL
NO_CHARGES


@<TRIPOS>ATOM
   1 S1             0.0631     1.7575    -0.6298 S.3     
   2 C2             0.1489     0.0045    -0.8754 C.2     
   3 N3             1.4268    -0.3511    -0.7013 N.am    
   4 C4             2.3259     0.5723    -0.4043 C.2     
   5 C5             1.7966     1.9388    -0.2950 C.2     
   6 O6             3.5019     0.3102    -0.2340 O.2     
   7 S7            -1.1550    -1.0358    -1.2609 S.2     
   8 C8             2.4760     3.0761    -0.0051 C.2     
   9 C9             1.8029     4.3793    -0.1021 C.ar    
  10 C10            2.3153     5.4882     0.5804 C.ar    
  11 C11            1.6780     6.7070     0.4842 C.ar    
  12 C12            0.5343     6.8353    -0.2848 C.ar    
  13 C13            0.0209     5.7433    -0.9630 C.ar    
  14 C14            0.6495     4.5190    -0.8819 C.ar    
  15 N15            1.8099    -1.6923    -0.8324 N.am    
  16 S16            2.2850    -2.2775    -2.3069 S.o2    
  17 O17            2.7486    -3.6019    -2.0826 O.2     
  18 O18            1.2411    -1.9633    -3.2185 O.2     
  19 C19            3.6873    -1.3386    -2.8135 C.ar    
  20 C20            4.9593    -1.7551    -2.4682 C.ar    
  21 C21            6.0595    -1.0184    -2.8656 C.ar    
  22 C22            5.8876     0.1344    -3.6087 C.ar    
  23 C23            4.6155     0.5505    -3.9548 C.ar    
  24 C24            3.5156    -0.1885    -3.5611 C.ar    
  25 N25           -0.1439     8.1476    -0.3820 N.pl3   
  26 O26            0.3048     9.1106     0.2137 O.2     
  27 O27           -1.1505     8.2643    -1.0577 O.2     
  28 H28            3.5116     3.0243     0.2971 H       
  29 H29            3.2074     5.3896     1.1811 H       
  30 H30            2.0720     7.5637     1.0106 H       
  31 H31           -0.8721     5.8517    -1.5606 H       
  32 H32            0.2502     3.6689    -1.4152 H       
  33 H33            1.7969    -2.2782    -0.0594 H       
  34 H34            5.0936    -2.6558    -1.8876 H       
  35 H35            7.0533    -1.3434    -2.5952 H       
  36 H36            6.7471     0.7103    -3.9186 H       
  37 H37            4.4812     1.4514    -4.5351 H       
  38 H38            2.5218     0.1365    -3.8315 H       
@<TRIPOS>BOND
   1    1    2 1
   2    1    5 1
   3    2    3 am
   4    2    7 2
   5    3    4 am
   6    3   15 1
   7    4    5 1
   8    4    6 2
   9    5    8 2
  10    8    9 1
  11    8   28 1
  12    9   10 ar
  13    9   14 ar
  14   10   11 ar
  15   10   29 1
  16   11   12 ar
  17   11   30 1
  18   12   13 ar
  19   12   25 1
  20   13   14 ar
  21   13   31 1
  22   14   32 1
  23   15   16 am
  24   15   33 1
  25   16   17 2
  26   16   18 2
  27   16   19 1
  28   19   20 ar
  29   19   24 ar
  30   20   21 ar
  31   20   34 1
  32   21   22 ar
  33   21   35 1
  34   22   23 ar
  35   22   36 1
  36   23   24 ar
  37   23   37 1
  38   24   38 1
  39   25   26 2
  40   25   27 2

#	End of record

