#	Name: ASD01148895
#	Creating user name:	WinNT
#	Creation time:	15. 06. 2019 19:03

#	Modifying user name:	WinNT
#	Modification time:	15. 06. 2019 19:03

#	Program:	/corina/corina34_cracker 3.40 0067  02.08.2006

@<TRIPOS>MOLECULE
ASD01148895
  44   46    0    0    0
SMALL
NO_CHARGES


@<TRIPOS>ATOM
   1 C1            -0.4572     0.2897    -0.4673 C.ar    
   2 C2            -0.1349    -1.0549    -0.4511 C.ar    
   3 C3             1.1844    -1.4491    -0.3424 C.ar    
   4 C4             2.1875    -0.4936    -0.2499 C.ar    
   5 C5             1.8608     0.8557    -0.2669 C.ar    
   6 C6             0.5397     1.2436    -0.3753 C.ar    
   7 S7            -2.1408     0.7886    -0.6128 S.o2    
   8 O8            -2.1244     2.1058    -1.1456 O.2     
   9 O9            -2.8273    -0.2913    -1.2307 O.2     
  10 N10           -2.7497     0.9127     0.9222 N.am    
  11 C11           -2.6622     2.1843     1.6444 C.3     
  12 C12           -3.3758    -0.2492     1.5581 C.3     
  13 N13            3.5269    -0.8903    -0.1391 N.pl3   
  14 C14            4.4997    -0.7045    -1.0906 C.2     
  15 C15            5.6621    -1.2257    -0.6073 C.2     
  16 C16            5.3912    -1.7421     0.6709 C.2     
  17 C17            4.0854    -1.5213     0.9356 C.2     
  18 C18            3.3655    -1.9089     2.2015 C.3     
  19 C19            4.3178    -0.0548    -2.4061 C.ar    
  20 C20            5.4199     0.4566    -3.0931 C.ar    
  21 C21            5.2445     1.0613    -4.3202 C.ar    
  22 C22            3.9769     1.1621    -4.8710 C.ar    
  23 C23            2.8793     0.6561    -4.1932 C.ar    
  24 C24            3.0440     0.0442    -2.9681 C.ar    
  25 F25            3.8106     1.7562    -6.0729 F       
  26 H26           -0.9156    -1.7977    -0.5231 H       
  27 H27            1.4354    -2.4994    -0.3291 H       
  28 H28            2.6389     1.6012    -0.1947 H       
  29 H29            0.2849     2.2931    -0.3882 H       
  30 H30           -3.5514     2.7805     1.4394 H       
  31 H31           -2.5935     1.9903     2.7148 H       
  32 H32           -1.7765     2.7283     1.3162 H       
  33 H33           -3.3484    -1.0968     0.8733 H       
  34 H34           -2.8336    -0.5007     2.4695 H       
  35 H35           -4.4113    -0.0145     1.8044 H       
  36 H36            6.6160    -1.2396    -1.1136 H       
  37 H37            6.1009    -2.2254     1.3260 H       
  38 H38            2.9567    -2.9136     2.0939 H       
  39 H39            4.0643    -1.8886     3.0377 H       
  40 H40            2.5546    -1.2049     2.3884 H       
  41 H41            6.4081     0.3792    -2.6644 H       
  42 H42            6.0966     1.4574    -4.8527 H       
  43 H43            1.8935     0.7375    -4.6269 H       
  44 H44            2.1884    -0.3535    -2.4426 H       
@<TRIPOS>BOND
   1    1    2 ar
   2    1    6 ar
   3    1    7 1
   4    2    3 ar
   5    2   26 1
   6    3    4 ar
   7    3   27 1
   8    4    5 ar
   9    4   13 1
  10    5    6 ar
  11    5   28 1
  12    6   29 1
  13    7    8 2
  14    7    9 2
  15    7   10 am
  16   10   11 1
  17   10   12 1
  18   11   30 1
  19   11   31 1
  20   11   32 1
  21   12   33 1
  22   12   34 1
  23   12   35 1
  24   13   14 1
  25   13   17 1
  26   14   15 2
  27   14   19 1
  28   15   16 1
  29   15   36 1
  30   16   17 2
  31   16   37 1
  32   17   18 1
  33   18   38 1
  34   18   39 1
  35   18   40 1
  36   19   20 ar
  37   19   24 ar
  38   20   21 ar
  39   20   41 1
  40   21   22 ar
  41   21   42 1
  42   22   23 ar
  43   22   25 1
  44   23   24 ar
  45   23   43 1
  46   24   44 1

#	End of record

