#	Name: ASD00122014
#	Creating user name:	WinNT
#	Creation time:	15. 06. 2019 18:31

#	Modifying user name:	WinNT
#	Modification time:	15. 06. 2019 18:31

#	Program:	/corina/corina34_cracker 3.40 0067  02.08.2006

@<TRIPOS>MOLECULE
ASD00122014
  33   33    0    0    0
SMALL
NO_CHARGES


@<TRIPOS>ATOM
   1 C1            -0.0168     1.3898     0.0097 C.ar    
   2 C2             0.0021    -0.0041     0.0020 C.ar    
   3 C3            -1.1889    -0.7175     0.0096 C.ar    
   4 C4            -2.3948    -0.0510     0.0252 C.ar    
   5 C5            -2.4210     1.3457     0.0329 C.ar    
   6 C6            -1.2224     2.0640     0.0306 C.ar    
   7 C7            -3.7119     2.0612     0.0491 C.2     
   8 N8            -4.8671     1.3670     0.0564 N.am    
   9 O9            -3.7332     3.2769     0.0558 O.2     
  10 C10           -6.1484     2.0771     0.0724 C.3     
  11 C11           -7.2340     1.1841    -0.5317 C.3     
  12 C12           -6.5198     2.4266     1.5149 C.3     
  13 C13           -5.5001     3.4186     2.0780 C.3     
  14 C14           -6.9268     0.9368    -2.0100 C.3     
  15 O15            1.1516     2.0858     0.0023 O.3     
  16 O16            1.1880    -0.6655    -0.0133 O.3     
  17 H17           -1.1702    -1.7973     0.0029 H       
  18 H18           -3.3198    -0.6085     0.0310 H       
  19 H19           -1.2385     3.1438     0.0365 H       
  20 H20           -4.8501     0.3971     0.0510 H       
  21 H21           -6.0637     2.9927    -0.5130 H       
  22 H22           -7.2581     0.2321    -0.0014 H       
  23 H23           -8.2022     1.6761    -0.4392 H       
  24 H24           -7.5130     2.8751     1.5359 H       
  25 H25           -6.5176     1.5202     2.1204 H       
  26 H26           -5.7647     3.6675     3.1057 H       
  27 H27           -4.5069     2.9700     2.0570 H       
  28 H28           -5.5023     4.3249     1.4725 H       
  29 H29           -6.9027     1.8889    -2.5403 H       
  30 H30           -5.9585     0.4449    -2.1025 H       
  31 H31           -7.7002     0.3007    -2.4404 H       
  32 H32            1.4810     2.2918    -0.8832 H       
  33 H33            1.5403    -0.8618     0.8656 H       
@<TRIPOS>BOND
   1    1    2 ar
   2    1   15 1
   3    1    6 ar
   4    2    3 ar
   5    2   16 1
   6    3    4 ar
   7    3   17 1
   8    4    5 ar
   9    4   18 1
  10    5    6 ar
  11    5    7 1
  12    6   19 1
  13    7    8 am
  14    7    9 2
  15    8   10 1
  16    8   20 1
  17   10   11 1
  18   10   12 1
  19   10   21 1
  20   11   14 1
  21   11   22 1
  22   11   23 1
  23   12   13 1
  24   12   24 1
  25   12   25 1
  26   13   26 1
  27   13   27 1
  28   13   28 1
  29   14   29 1
  30   14   30 1
  31   14   31 1
  32   15   32 1
  33   16   33 1

#	End of record

