#	Name: ASD01814508
#	Creating user name:	WinNT
#	Creation time:	15. 06. 2019 19:32

#	Modifying user name:	WinNT
#	Modification time:	15. 06. 2019 19:32

#	Program:	/corina/corina34_cracker 3.40 0067  02.08.2006

@<TRIPOS>MOLECULE
ASD01814508
  49   54    0    0    0
SMALL
NO_CHARGES


@<TRIPOS>ATOM
   1 C1            -0.0167     1.3810     0.0096 C.2     
   2 C2             0.0021    -0.0041     0.0020 C.2     
   3 N3             1.1952     2.0645     0.0017 N.pl3   
   4 N4             2.3425     1.5022    -0.0126 N.2     
   5 C5             2.5064     0.2040    -0.0212 C.2     
   6 C6             1.3103    -0.6708    -0.0145 C.2     
   7 C7             1.1528     3.5289     0.0100 C.3     
   8 C8             1.1519     4.0234     1.4336 C.ar    
   9 C9             2.3492     4.2845     2.0741 C.ar    
  10 C10            2.3516     4.7373     3.3789 C.ar    
  11 C11            1.1501     4.9308     4.0473 C.ar    
  12 C12           -0.0505     4.6682     3.4013 C.ar    
  13 C13           -0.0465     4.2205     2.0947 C.ar    
  14 N14            1.1492     5.3899     5.3718 N.pl3   
  15 C15            3.6454    -0.7131    -0.0376 C.2     
  16 N16            3.1267    -1.9600    -0.0392 N.am    
  17 N17            1.7303    -1.9064    -0.0253 N.2     
  18 O18            4.8279    -0.4119    -0.0483 O.2     
  19 C19            3.8789    -3.1359    -0.0532 C.ar    
  20 C20            4.8527    -3.3736     0.9167 C.ar    
  21 C21            5.5747    -4.5474     0.8694 C.ar    
  22 N22            5.3545    -5.4405    -0.0774 N.ar    
  23 C23            4.4413    -5.2533    -1.0143 C.ar    
  24 C24            3.6720    -4.1046    -1.0330 C.ar    
  25 C25            2.6326    -3.8982    -2.1045 C.3     
  26 S26           -1.6405    -0.6241     0.0144 S.3     
  27 C27           -2.2971     1.0048     0.0294 C.2     
  28 C28           -1.3154     1.8978     0.0305 C.2     
  29 C29            0.0560     5.6193     6.1339 C.2     
  30 C30            0.4808     6.0521     7.3436 C.2     
  31 C31            1.8794     6.0889     7.3212 C.2     
  32 N32            2.2810     5.6865     6.1423 N.2     
  33 F33            4.2541    -6.1976    -1.9621 F       
  34 H34            2.0270     3.9206    -0.5101 H       
  35 H35            0.2478     3.8690    -0.4934 H       
  36 H36            3.2835     4.1338     1.5537 H       
  37 H37            3.2870     4.9404     3.8789 H       
  38 H38           -0.9866     4.8174     3.9188 H       
  39 H39           -0.9801     4.0160     1.5917 H       
  40 H40            5.0390    -2.6476     1.6943 H       
  41 H41            6.3307    -4.7385     1.6167 H       
  42 H42            1.6799    -4.3090    -1.7704 H       
  43 H43            2.5198    -2.8319    -2.3006 H       
  44 H44            2.9465    -4.4043    -3.0174 H       
  45 H45           -3.3499     1.2455     0.0404 H       
  46 H46           -1.5083     2.9604     0.0394 H       
  47 H47           -0.9716     5.4822     5.8313 H       
  48 H48           -0.1485     6.3216     8.1788 H       
  49 H49            2.5177     6.3926     8.1377 H       
@<TRIPOS>BOND
   1    1    2 2
   2    1    3 1
   3    1   28 1
   4    2   26 1
   5    2    6 1
   6    3    4 1
   7    3    7 1
   8    4    5 2
   9    5    6 1
  10    5   15 1
  11    6   17 2
  12    7    8 1
  13    7   34 1
  14    7   35 1
  15    8    9 ar
  16    8   13 ar
  17    9   10 ar
  18    9   36 1
  19   10   11 ar
  20   10   37 1
  21   11   12 ar
  22   11   14 1
  23   12   13 ar
  24   12   38 1
  25   13   39 1
  26   14   29 1
  27   14   32 1
  28   15   16 am
  29   15   18 2
  30   16   17 1
  31   16   19 1
  32   19   20 ar
  33   19   24 ar
  34   20   21 ar
  35   20   40 1
  36   21   22 ar
  37   21   41 1
  38   22   23 ar
  39   23   24 ar
  40   23   33 1
  41   24   25 1
  42   25   42 1
  43   25   43 1
  44   25   44 1
  45   26   27 1
  46   27   28 2
  47   27   45 1
  48   28   46 1
  49   29   30 2
  50   29   47 1
  51   30   31 1
  52   30   48 1
  53   31   32 2
  54   31   49 1

#	End of record

