#	Name: ASD00069061
#	Creating user name:	WinNT
#	Creation time:	15. 06. 2019 18:29

#	Modifying user name:	WinNT
#	Modification time:	15. 06. 2019 18:29

#	Program:	/corina/corina34_cracker 3.40 0067  02.08.2006

@<TRIPOS>MOLECULE
ASD00069061
  32   32    0    0    0
SMALL
NO_CHARGES


@<TRIPOS>ATOM
   1 C1            -0.0178     1.4642     0.0101 C.3     
   2 N2             0.0021    -0.0041     0.0020 N.3     
   3 C3             0.6459    -0.5197    -1.2129 C.3     
   4 C4             2.1009    -0.0479    -1.2603 C.3     
   5 C5             2.1366     1.4828    -1.2517 C.3     
   6 C6             1.4174     1.9953    -0.0008 C.3     
   7 C7             3.5901     1.9604    -1.2375 C.3     
   8 C8             3.6243     3.4899    -1.2289 C.3     
   9 C9             4.2898     1.4275     0.0145 C.3     
  10 C10            1.4335     2.0177    -2.5009 C.3     
  11 C11           -1.3536    -0.5498     0.1516 C.3     
  12 H12           -0.5453     1.8252    -0.8729 H       
  13 H13           -0.5283     1.8156     0.9068 H       
  14 H14            0.6175    -1.6093    -1.2045 H       
  15 H15            0.1153    -0.1495    -2.0901 H       
  16 H16            2.6356    -0.4293    -0.3904 H       
  17 H17            2.5740    -0.4178    -2.1699 H       
  18 H18            1.4021     3.0851    -0.0105 H       
  19 H19            1.9414     1.6460     0.8890 H       
  20 H20            4.1027     1.5904    -2.1254 H       
  21 H21            4.6598     3.8301    -1.2188 H       
  22 H22            3.1259     3.8695    -2.1208 H       
  23 H23            3.1117     3.8599    -0.3409 H       
  24 H24            4.2654     0.3378     0.0084 H       
  25 H25            5.3253     1.7677     0.0246 H       
  26 H26            3.7771     1.7974     0.9024 H       
  27 H27            0.3975     1.6789    -2.5078 H       
  28 H28            1.4593     3.1074    -2.4939 H       
  29 H29            1.9427     1.6479    -3.3908 H       
  30 H30           -1.9774    -0.2042    -0.6728 H       
  31 H31           -1.3099    -1.6389     0.1423 H       
  32 H32           -1.7794    -0.2112     1.0961 H       
@<TRIPOS>BOND
   1    1    2 1
   2    1    6 1
   3    1   12 1
   4    1   13 1
   5    2    3 1
   6    2   11 1
   7    3    4 1
   8    3   14 1
   9    3   15 1
  10    4    5 1
  11    4   16 1
  12    4   17 1
  13    5    6 1
  14    5    7 1
  15    5   10 1
  16    6   18 1
  17    6   19 1
  18    7    8 1
  19    7    9 1
  20    7   20 1
  21    8   21 1
  22    8   22 1
  23    8   23 1
  24    9   24 1
  25    9   25 1
  26    9   26 1
  27   10   27 1
  28   10   28 1
  29   10   29 1
  30   11   30 1
  31   11   31 1
  32   11   32 1

#	End of record

