#	Name: ASD01900770
#	Creating user name:	WinNT
#	Creation time:	15. 06. 2019 19:52

#	Modifying user name:	WinNT
#	Modification time:	15. 06. 2019 19:52

#	Program:	/corina/corina34_cracker 3.40 0067  02.08.2006

@<TRIPOS>MOLECULE
ASD01900770
  53   57    0    0    0
SMALL
NO_CHARGES


@<TRIPOS>ATOM
   1 C1            -0.3005     1.4365    -0.6384 C.ar    
   2 C2            -0.1956     0.0693    -0.4150 C.ar    
   3 C3            -1.3171    -0.7347    -0.4357 C.ar    
   4 C4            -2.5663    -0.1803    -0.6811 C.ar    
   5 C5            -2.6694     1.1984    -0.9099 C.ar    
   6 O6            -3.6714    -0.9574    -0.6922 O.3     
   7 C7            -4.8347    -0.5249    -1.2093 C.2     
   8 C8            -5.0808     0.7845    -1.4686 C.2     
   9 C9            -4.0161     1.7621    -1.1831 C.2     
  10 C10           -5.8850    -1.5127    -1.5071 C.2     
  11 N11           -7.0689    -1.1079    -2.0290 N.2     
  12 C12           -8.0213    -1.9462    -2.3060 C.2     
  13 N13           -7.8789    -3.2885    -2.0845 N.pl3   
  14 C14           -6.6945    -3.7679    -1.5532 C.2     
  15 C15           -5.6627    -2.8570    -1.2596 C.2     
  16 C16           -1.5402     2.0057    -0.8808 C.ar    
  17 C17           -8.7122    -4.3464    -2.2870 C.2     
  18 C18           -8.0856    -5.4834    -1.8975 C.2     
  19 C19           -6.8129    -5.1398    -1.4320 C.2     
  20 O20            0.8127     2.2168    -0.6135 O.3     
  21 C21            2.0567     1.5642    -0.3518 C.3     
  22 C22            3.1693     2.5806    -0.3632 C.2     
  23 N23            4.4399     2.1913    -0.1384 N.am    
  24 C24            5.4860     3.1149    -0.2544 C.ar    
  25 O25            2.9213     3.7489    -0.5746 O.2     
  26 C26            6.4157     2.9875    -1.2778 C.ar    
  27 C27            7.4465     3.8998    -1.3908 C.ar    
  28 C28            7.5532     4.9410    -0.4842 C.ar    
  29 C29            6.6271     5.0699     0.5372 C.ar    
  30 C30            5.5918     4.1628     0.6505 C.ar    
  31 F31            8.5624     5.8321    -0.5960 F       
  32 C32            4.7266     0.8020     0.2272 C.3     
  33 N33           -4.2442     3.0540    -1.1705 N.2     
  34 O34           -3.2266     3.9487    -0.7595 O.3     
  35 H35            0.7729    -0.3686    -0.2237 H       
  36 H36           -1.2230    -1.7963    -0.2612 H       
  37 H37           -6.0307     1.1009    -1.8734 H       
  38 H38           -8.9470    -1.5751    -2.7204 H       
  39 H39           -4.7252    -3.1964    -0.8446 H       
  40 H40           -1.6264     3.0681    -1.0546 H       
  41 H41           -9.7116    -4.2887    -2.6924 H       
  42 H42           -8.4976    -6.4809    -1.9394 H       
  43 H43           -6.0642    -5.8178    -1.0498 H       
  44 H44            2.0155     1.0816     0.6247 H       
  45 H45            2.2421     0.8139    -1.1204 H       
  46 H46            6.3330     2.1753    -1.9849 H       
  47 H47            8.1700     3.8008    -2.1865 H       
  48 H48            6.7122     5.8825     1.2435 H       
  49 H49            4.8697     4.2636     1.4473 H       
  50 H50            4.8999     0.2169    -0.6761 H       
  51 H51            5.6149     0.7681     0.8579 H       
  52 H52            3.8784     0.3871     0.7717 H       
  53 H53           -3.4878     4.8794    -0.7836 H       
@<TRIPOS>BOND
   1    1    2 ar
   2    1   20 1
   3    1   16 ar
   4    2    3 ar
   5    2   35 1
   6    3    4 ar
   7    3   36 1
   8    4    5 ar
   9    4    6 1
  10    5   16 ar
  11    5    9 1
  12    6    7 1
  13    7    8 2
  14    7   10 1
  15    8    9 1
  16    8   37 1
  17    9   33 2
  18   10   11 1
  19   10   15 2
  20   11   12 2
  21   12   13 1
  22   12   38 1
  23   13   14 1
  24   13   17 1
  25   14   15 1
  26   14   19 2
  27   15   39 1
  28   16   40 1
  29   17   18 2
  30   17   41 1
  31   18   19 1
  32   18   42 1
  33   19   43 1
  34   20   21 1
  35   21   22 1
  36   21   44 1
  37   21   45 1
  38   22   23 am
  39   22   25 2
  40   23   24 1
  41   23   32 1
  42   24   26 ar
  43   24   30 ar
  44   26   27 ar
  45   26   46 1
  46   27   28 ar
  47   27   47 1
  48   28   29 ar
  49   28   31 1
  50   29   30 ar
  51   29   48 1
  52   30   49 1
  53   32   50 1
  54   32   51 1
  55   32   52 1
  56   33   34 1
  57   34   53 1

#	End of record

