#	Name: ASD03091799
#	Creating user name:	WinNT
#	Creation time:	15. 06. 2019 20:31

#	Modifying user name:	WinNT
#	Modification time:	15. 06. 2019 20:31

#	Program:	/corina/corina34_cracker 3.40 0067  02.08.2006

@<TRIPOS>MOLECULE
ASD03091799
  47   51    0    0    0
SMALL
NO_CHARGES


@<TRIPOS>ATOM
   1 C1            -0.1398     1.4099    -0.2229 C.3     
   2 C2            -0.1833    -0.1115    -0.0080 C.3     
   3 C3             1.0251    -0.5277     0.8356 C.3     
   4 C4             1.0618     0.2943     2.1272 C.3     
   5 C5             1.0209     1.7882     1.7675 C.3     
   6 C6             2.0605     2.0342     0.6499 C.3     
   7 C7             1.2935     1.7842    -0.6653 C.3     
   8 N8            -0.2886     2.0480     1.1122 N.3     
   9 C9            -0.5349     3.4903     0.9817 C.3     
  10 O10            0.9239    -1.9161     1.1585 O.3     
  11 C11            2.0788    -3.9475     1.6282 C.ar    
  12 C12            2.0839    -2.5758     1.4160 C.ar    
  13 C13            3.2905    -1.8835     1.4693 C.ar    
  14 C14            4.4473    -2.5941     1.7338 C.ar    
  15 C15            4.3666    -3.9704     1.9367 C.ar    
  16 N16            3.1978    -4.5956     1.8779 N.ar    
  17 C17            7.9203    -6.1777     2.7530 C.ar    
  18 C18            6.6948    -6.8494     2.6943 C.ar    
  19 C19            6.8472    -8.2753     2.9369 C.2     
  20 C20            8.0840    -8.6702     3.1632 C.2     
  21 S21            9.2070    -7.3257     3.1033 S.3     
  22 C22            5.5254    -6.1106     2.4233 C.ar    
  23 C23            5.5995    -4.7441     2.2211 C.ar    
  24 C24            6.8348    -4.0902     2.2838 C.ar    
  25 C25            7.9701    -4.7941     2.5498 C.ar    
  26 H26           -0.8923     1.7454    -0.9366 H       
  27 H27           -1.1022    -0.3805     0.5129 H       
  28 H28           -0.1468    -0.6176    -0.9726 H       
  29 H29            1.9400    -0.3538     0.2691 H       
  30 H30            0.1989     0.0435     2.7441 H       
  31 H31            1.9793     0.0753     2.6734 H       
  32 H32            1.1911     2.4243     2.6361 H       
  33 H33            2.4228     3.0614     0.6884 H       
  34 H34            2.8909     1.3344     0.7436 H       
  35 H35            1.7468     0.9616    -1.2183 H       
  36 H36            1.2787     2.6887    -1.2735 H       
  37 H37           -1.4505     3.6526     0.4129 H       
  38 H38           -0.6398     3.9321     1.9727 H       
  39 H39            0.3026     3.9566     0.4629 H       
  40 H40            1.1452    -4.4893     1.5925 H       
  41 H41            3.3226    -0.8161     1.3076 H       
  42 H42            5.4007    -2.0890     1.7821 H       
  43 H43            6.0107    -8.9583     2.9322 H       
  44 H44            8.3694    -9.6928     3.3610 H       
  45 H45            4.5701    -6.6120     2.3738 H       
  46 H46            6.8878    -3.0234     2.1245 H       
  47 H47            8.9191    -4.2805     2.5965 H       
@<TRIPOS>BOND
   1    1    2 1
   2    1    7 1
   3    1    8 1
   4    1   26 1
   5    2    3 1
   6    2   27 1
   7    2   28 1
   8    3    4 1
   9    3   10 1
  10    3   29 1
  11    4    5 1
  12    4   30 1
  13    4   31 1
  14    5    6 1
  15    5    8 1
  16    5   32 1
  17    6    7 1
  18    6   33 1
  19    6   34 1
  20    7   35 1
  21    7   36 1
  22    8    9 1
  23    9   37 1
  24    9   38 1
  25    9   39 1
  26   10   12 1
  27   11   12 ar
  28   11   16 ar
  29   11   40 1
  30   12   13 ar
  31   13   14 ar
  32   13   41 1
  33   14   15 ar
  34   14   42 1
  35   15   16 ar
  36   15   23 1
  37   17   18 ar
  38   17   21 1
  39   17   25 ar
  40   18   19 1
  41   18   22 ar
  42   19   20 2
  43   19   43 1
  44   20   21 1
  45   20   44 1
  46   22   23 ar
  47   22   45 1
  48   23   24 ar
  49   24   25 ar
  50   24   46 1
  51   25   47 1

#	End of record

