#	Name: ASD00069369
#	Creating user name:	WinNT
#	Creation time:	15. 06. 2019 18:29

#	Modifying user name:	WinNT
#	Modification time:	15. 06. 2019 18:29

#	Program:	/corina/corina34_cracker 3.40 0067  02.08.2006

@<TRIPOS>MOLECULE
ASD00069369
 100  106    0    0    0
SMALL
NO_CHARGES


@<TRIPOS>ATOM
   1 C1            -0.0306     1.1884     0.4816 C.2     
   2 C2             0.0230    -0.1880     0.4662 C.2     
   3 N3             1.2417     1.6318     0.3822 N.pl3   
   4 C4             2.0536     0.5340     0.3076 C.2     
   5 N5             1.3091    -0.5471     0.3592 N.2     
   6 C6            -1.1361    -1.1080     0.5535 C.ar    
   7 N7            -2.3751    -0.6265     0.6584 N.ar    
   8 C8            -0.9467    -2.4882     0.5212 C.ar    
   9 C9            -2.0668    -3.3126     0.6063 C.ar    
  10 N10           -3.2716    -2.7588     0.7148 N.ar    
  11 C11           -3.4147    -1.4421     0.7368 C.ar    
  12 C12            3.5231     0.5595     0.1888 C.2     
  13 N13            4.2141    -0.5958     0.1236 N.am    
  14 O14            4.1117     1.6231     0.1497 O.2     
  15 C15            5.5996    -0.5725    -0.0779 C.ar    
  16 C16            6.2341    -1.6520    -0.6904 C.ar    
  17 C17            6.3419     0.5272     0.3264 C.ar    
  18 C18            7.7153     0.5483     0.1258 C.ar    
  19 C19            8.3466    -0.5303    -0.4792 C.ar    
  20 C20            7.6077    -1.6265    -0.8889 C.ar    
  21 N21            5.4847    -2.7643    -1.1056 N.3     
  22 C22            5.8697    -3.9675    -0.3569 C.3     
  23 C23            4.9364    -5.1218    -0.7297 C.3     
  24 C24            5.0297    -5.3811    -2.2352 C.3     
  25 C25            4.6725    -4.0996    -2.9918 C.3     
  26 C26            5.6133    -2.9748    -2.5532 C.3     
  27 F27            8.2245    -2.6748    -1.4770 F       
  28 N28           -4.6851    -0.9048     0.8508 N.pl3   
  29 N29           -1.9278    -4.6913     0.5778 N.3     
  30 C30           -1.0197    -5.1506     1.6365 C.3     
  31 C31           -1.4771    -5.1475    -0.7432 C.3     
  32 C32           -1.4746    -6.6774    -0.7825 C.3     
  33 C33           -0.5407    -7.2096     0.3080 C.3     
  34 C34           -1.0036    -6.6805     1.6683 C.3     
  35 C35           -0.0552    -7.1515     2.7406 C.2     
  36 N36            0.1248    -8.4708     2.9490 N.am    
  37 O37            0.5461    -6.3433     3.4160 O.2     
  38 C38            1.0467    -8.9287     3.9914 C.3     
  39 C39            0.6380   -10.3283     4.4549 C.3     
  40 C40            2.4695    -8.9725     3.4305 C.3     
  41 C41            3.4324    -9.4507     4.5191 C.3     
  42 C42            3.0237   -10.8503     4.9826 C.3     
  43 C43            1.6009   -10.8065     5.5435 C.3     
  44 C44            6.4546    -5.8068    -2.5933 C.3     
  45 N45            6.7897    -7.0471    -1.8818 N.3     
  46 C46            5.8957    -8.1432    -2.2764 C.3     
  47 C47            4.4541    -7.7866    -1.9069 C.3     
  48 C48            4.0537    -6.4939    -2.6237 C.3     
  49 N49            8.4644     1.6583     0.5335 N.pl3   
  50 C50           -2.4246    -4.6115    -1.8183 C.3     
  51 H51           -0.9200     1.7968     0.5545 H       
  52 H52            1.5269     2.5588     0.3662 H       
  53 H53            0.0441    -2.9087     0.4320 H       
  54 H54            3.7516    -1.4434     0.2163 H       
  55 H55            5.8516     1.3666     0.7968 H       
  56 H56            9.4152    -0.5117    -0.6347 H       
  57 H57            6.8966    -4.2362    -0.6046 H       
  58 H58            5.7939    -3.7698     0.7123 H       
  59 H59            5.2328    -6.0193    -0.1868 H       
  60 H60            3.9111    -4.8597    -0.4684 H       
  61 H61            4.7808    -4.2675    -4.0633 H       
  62 H62            3.6427    -3.8204    -2.7689 H       
  63 H63            5.3510    -2.0564    -3.0784 H       
  64 H64            6.6414    -3.2479    -2.7905 H       
  65 H65           -5.4557    -1.4906     0.9134 H       
  66 H66           -4.8048     0.0576     0.8682 H       
  67 H67           -0.0138    -4.7808     1.4379 H       
  68 H68           -1.3626    -4.7709     2.5990 H       
  69 H69           -0.4690    -4.7778    -0.9307 H       
  70 H70           -2.4850    -7.0475    -0.6087 H       
  71 H71           -1.1251    -7.0159    -1.7579 H       
  72 H72           -0.5691    -8.2992     0.3121 H       
  73 H73            0.4770    -6.8716     0.1129 H       
  74 H74           -2.0066    -7.0507     1.8806 H       
  75 H75           -0.3561    -9.1172     2.4088 H       
  76 H76            1.0103    -8.2411     4.8363 H       
  77 H77           -0.3757   -10.2971     4.8545 H       
  78 H78            0.6744   -11.0160     3.6100 H       
  79 H79            2.5060    -9.6601     2.5855 H       
  80 H80            2.7607    -7.9754     3.1002 H       
  81 H81            4.4460    -9.4818     4.1195 H       
  82 H82            3.3960    -8.7630     5.3640 H       
  83 H83            3.0601   -11.5379     4.1377 H       
  84 H84            3.7096   -11.1909     5.7582 H       
  85 H85            1.5644   -10.1189     6.3885 H       
  86 H86            1.3096   -11.8036     5.8738 H       
  87 H87            6.5243    -5.9744    -3.6681 H       
  88 H88            7.1523    -5.0214    -2.3024 H       
  89 H89            7.7560    -7.2981    -2.0281 H       
  90 H90            5.9666    -8.2999    -3.3527 H       
  91 H91            6.1887    -9.0555    -1.7568 H       
  92 H92            3.7893    -8.5940    -2.2141 H       
  93 H93            4.3795    -7.6431    -0.8290 H       
  94 H94            3.0431    -6.2117    -2.3284 H       
  95 H95            4.0890    -6.6494    -3.7020 H       
  96 H96            8.0238     2.4121     0.9559 H       
  97 H97            9.4241     1.6735     0.3935 H       
  98 H98           -2.4257    -3.5219    -1.7911 H       
  99 H99           -2.0902    -4.9502    -2.7989 H       
 100 H100          -3.4329    -4.9807    -1.6308 H       
@<TRIPOS>BOND
   1    1    2 2
   2    1    3 1
   3    1   51 1
   4    2    6 1
   5    2    5 1
   6    3    4 1
   7    3   52 1
   8    4    5 2
   9    4   12 1
  10    6    7 ar
  11    6    8 ar
  12    7   11 ar
  13    8    9 ar
  14    8   53 1
  15    9   10 ar
  16    9   29 1
  17   10   11 ar
  18   11   28 1
  19   12   13 am
  20   12   14 2
  21   13   15 1
  22   13   54 1
  23   15   16 ar
  24   15   17 ar
  25   16   21 1
  26   16   20 ar
  27   17   18 ar
  28   17   55 1
  29   18   19 ar
  30   18   49 1
  31   19   20 ar
  32   19   56 1
  33   20   27 1
  34   21   22 1
  35   21   26 1
  36   22   23 1
  37   22   57 1
  38   22   58 1
  39   23   24 1
  40   23   59 1
  41   23   60 1
  42   24   25 1
  43   24   44 1
  44   24   48 1
  45   25   26 1
  46   25   61 1
  47   25   62 1
  48   26   63 1
  49   26   64 1
  50   28   65 1
  51   28   66 1
  52   29   30 1
  53   29   31 1
  54   30   34 1
  55   30   67 1
  56   30   68 1
  57   31   32 1
  58   31   50 1
  59   31   69 1
  60   32   33 1
  61   32   70 1
  62   32   71 1
  63   33   34 1
  64   33   72 1
  65   33   73 1
  66   34   35 1
  67   34   74 1
  68   35   36 am
  69   35   37 2
  70   36   38 1
  71   36   75 1
  72   38   39 1
  73   38   40 1
  74   38   76 1
  75   39   43 1
  76   39   77 1
  77   39   78 1
  78   40   41 1
  79   40   79 1
  80   40   80 1
  81   41   42 1
  82   41   81 1
  83   41   82 1
  84   42   43 1
  85   42   83 1
  86   42   84 1
  87   43   85 1
  88   43   86 1
  89   44   45 1
  90   44   87 1
  91   44   88 1
  92   45   46 1
  93   45   89 1
  94   46   47 1
  95   46   90 1
  96   46   91 1
  97   47   48 1
  98   47   92 1
  99   47   93 1
 100   48   94 1
 101   48   95 1
 102   49   96 1
 103   49   97 1
 104   50   98 1
 105   50   99 1
 106   50  100 1

#	End of record

