#	Name: ASD01870620
#	Creating user name:	WinNT
#	Creation time:	15. 06. 2019 19:39

#	Modifying user name:	WinNT
#	Modification time:	15. 06. 2019 19:39

#	Program:	/corina/corina34_cracker 3.40 0067  02.08.2006

@<TRIPOS>MOLECULE
ASD01870620
  49   53    0    0    0
SMALL
NO_CHARGES


@<TRIPOS>ATOM
   1 C1            -0.0671     1.4220    -0.0458 C.ar    
   2 C2            -0.0579     0.0358    -0.0535 C.ar    
   3 C3             1.1381    -0.6571    -0.0570 C.ar    
   4 C4             2.3452     0.0246    -0.0527 C.ar    
   5 C5             2.3516     1.4101    -0.0454 C.ar    
   6 C6             1.1317     2.1167    -0.0419 C.ar    
   7 C7             3.4141     2.4376    -0.0389 C.2     
   8 N8             2.8358     3.6522    -0.0326 N.am    
   9 C9             1.4945     3.5496    -0.0339 C.2     
  10 C10            3.5379     4.8642    -0.0246 C.ar    
  11 C11            3.8918     5.4697     1.1990 C.ar    
  12 C12            4.6016     6.6953     1.1902 C.ar    
  13 C13            4.9431     7.2904    -0.0425 C.ar    
  14 C14            4.5829     6.6736    -1.2212 C.ar    
  15 C15            3.8907     5.4671    -1.2119 C.ar    
  16 O16            0.7125     4.4789    -0.0287 O.2     
  17 O17            4.6092     2.2215    -0.0386 O.2     
  18 N18            5.6427     8.4993    -0.0683 N.am    
  19 C19            6.5379     8.7391    -1.0470 C.2     
  20 C20            7.1819    10.0525    -1.1456 C.2     
  21 O21            6.8116     7.8652    -1.8488 O.2     
  22 C22            8.1016    10.4269    -2.0832 C.2     
  23 C23            8.4457    11.7583    -1.8017 C.2     
  24 C24            7.7302    12.1336    -0.7186 C.2     
  25 O25            6.9655    11.1049    -0.3297 O.3     
  26 C26            8.6427     9.5755    -3.2027 C.3     
  27 C27            3.5532     4.8787     2.4271 C.ar    
  28 C28            3.9104     5.4894     3.5903 C.ar    
  29 C29            4.6082     6.6954     3.5816 C.ar    
  30 C30            4.9532     7.2963     2.4095 C.ar    
  31 C31           -1.3753     2.1701    -0.0479 C.3     
  32 H32           -0.9919    -0.5066    -0.0566 H       
  33 H33            1.1322    -1.7370    -0.0626 H       
  34 H34            3.2766    -0.5220    -0.0547 H       
  35 H35            4.8448     7.1307    -2.1639 H       
  36 H36            3.6228     4.9991    -2.1476 H       
  37 H37            5.4843     9.1661     0.6180 H       
  38 H38            9.1502    12.3681    -2.3480 H       
  39 H39            7.7655    13.1045    -0.2470 H       
  40 H40            8.0154     9.6953    -4.0861 H       
  41 H41            9.6613     9.8858    -3.4356 H       
  42 H42            8.6426     8.5294    -2.8963 H       
  43 H43            3.0118     3.9444     2.4488 H       
  44 H44            3.6488     5.0327     4.5334 H       
  45 H45            4.8794     7.1602     4.5180 H       
  46 H46            5.4948     8.2307     2.4177 H       
  47 H47           -1.6956     2.3447     0.9793 H       
  48 H48           -1.2464     3.1259    -0.5557 H       
  49 H49           -2.1300     1.5808    -0.5687 H       
@<TRIPOS>BOND
   1    1    2 ar
   2    1    6 ar
   3    1   31 1
   4    2    3 ar
   5    2   32 1
   6    3    4 ar
   7    3   33 1
   8    4    5 ar
   9    4   34 1
  10    5    7 1
  11    5    6 ar
  12    6    9 1
  13    7    8 am
  14    7   17 2
  15    8    9 am
  16    8   10 1
  17    9   16 2
  18   10   11 ar
  19   10   15 ar
  20   11   27 ar
  21   11   12 ar
  22   12   13 ar
  23   12   30 ar
  24   13   14 ar
  25   13   18 1
  26   14   15 ar
  27   14   35 1
  28   15   36 1
  29   18   19 am
  30   18   37 1
  31   19   20 1
  32   19   21 2
  33   20   22 2
  34   20   25 1
  35   22   23 1
  36   22   26 1
  37   23   24 2
  38   23   38 1
  39   24   25 1
  40   24   39 1
  41   26   40 1
  42   26   41 1
  43   26   42 1
  44   27   28 ar
  45   27   43 1
  46   28   29 ar
  47   28   44 1
  48   29   30 ar
  49   29   45 1
  50   30   46 1
  51   31   47 1
  52   31   48 1
  53   31   49 1

#	End of record

