#	Name: ASD04590784
#	Creating user name:	WinNT
#	Creation time:	15. 06. 2019 20:51

#	Modifying user name:	WinNT
#	Modification time:	15. 06. 2019 20:51

#	Program:	/corina/corina34_cracker 3.40 0067  02.08.2006

@<TRIPOS>MOLECULE
ASD04590784
  68   73    0    0    0
SMALL
NO_CHARGES


@<TRIPOS>ATOM
   1 N1            -2.3786    -2.7063     0.0213 N.ar    
   2 C2            -1.2121    -2.0744     0.0045 C.ar    
   3 N3            -0.0579    -2.7207    -0.0182 N.ar    
   4 C4            -0.0264    -4.0500    -0.0250 C.ar    
   5 C5            -1.2491    -4.7510    -0.0075 C.ar    
   6 C6            -2.4374    -4.0279     0.0161 C.ar    
   7 N7             0.9975    -4.9644    -0.0462 N.pl3   
   8 C8             0.4945    -6.2539    -0.0434 C.ar    
   9 C9            -0.9097    -6.1797    -0.0194 C.ar    
  10 C10            1.0910    -7.5081    -0.0580 C.ar    
  11 N11            0.3547    -8.6005    -0.0501 N.ar    
  12 C12           -0.9660    -8.5653    -0.0277 C.ar    
  13 C13           -1.6441    -7.3649    -0.0119 C.ar    
  14 C14            2.4220    -4.6232    -0.0694 C.3     
  15 N15           -1.2023    -0.6889     0.0103 N.pl3   
  16 C16           -2.3994     0.0160    -0.0791 C.ar    
  17 N17           -3.5337    -0.6392    -0.2706 N.ar    
  18 C18           -4.6897    -0.0095    -0.3611 C.ar    
  19 C19           -4.7569     1.3655    -0.2582 C.ar    
  20 C20           -3.5896     2.0902    -0.0571 C.ar    
  21 C21           -2.3936     1.4019     0.0393 C.ar    
  22 C22           -6.0834     2.0728    -0.3638 C.3     
  23 C23           -6.6979     2.1950     1.0068 C.2     
  24 C24            2.7319    -3.7307    -1.2889 C.3     
  25 C25            2.7880    -3.8030     1.1800 C.3     
  26 C26            3.3075    -2.4406     0.6761 C.3     
  27 C27            2.6728    -2.2879    -0.7285 C.3     
  28 O28           -6.1160     1.7514     1.9740 O.2     
  29 N29           -7.8942     2.7973     1.1577 N.am    
  30 C30           -8.6167     3.3420    -0.0018 C.3     
  31 C31          -10.0496     2.7992     0.0186 C.3     
  32 N32          -10.6606     3.0879     1.3229 N.3     
  33 C33           -9.9487     2.4007     2.4087 C.3     
  34 C34           -8.5145     2.9218     2.4854 C.3     
  35 C35          -10.6623     2.6668     3.7357 C.3     
  36 C36           -9.9270     0.8960     2.1328 C.3     
  37 H37           -3.3903    -4.5360     0.0299 H       
  38 H38            2.1678    -7.5884    -0.0765 H       
  39 H39           -1.5227    -9.4907    -0.0221 H       
  40 H40           -2.7237    -7.3432     0.0065 H       
  41 H41            3.0227    -5.5319    -0.1087 H       
  42 H42           -0.3613    -0.2101     0.0767 H       
  43 H43           -5.5950    -0.5772    -0.5179 H       
  44 H44           -3.6154     3.1667     0.0267 H       
  45 H45           -1.4669     1.9340     0.1957 H       
  46 H46           -5.9326     3.0670    -0.7843 H       
  47 H47           -6.7492     1.5017    -1.0109 H       
  48 H48            3.7265    -3.9483    -1.6781 H       
  49 H49            1.9788    -3.8698    -2.0646 H       
  50 H50            1.9058    -3.6587     1.8036 H       
  51 H51            3.5670    -4.3132     1.7466 H       
  52 H52            2.9746    -1.6382     1.3344 H       
  53 H53            4.3951    -2.4499     0.6043 H       
  54 H54            3.2606    -1.6092    -1.3464 H       
  55 H55            1.6408    -1.9456    -0.6509 H       
  56 H56           -8.6365     4.4302     0.0573 H       
  57 H57           -8.1205     3.0315    -0.9213 H       
  58 H58          -10.6311     3.2778    -0.7694 H       
  59 H59          -10.0327     1.7217    -0.1446 H       
  60 H60          -10.7027     4.0820     1.4904 H       
  61 H61           -7.9505     2.3360     3.2113 H       
  62 H62           -8.5213     3.9704     2.7830 H       
  63 H63          -11.6851     2.2944     3.6793 H       
  64 H64          -10.1337     2.1568     4.5411 H       
  65 H65          -10.6763     3.7389     3.9321 H       
  66 H66           -9.4175     0.7071     1.1879 H       
  67 H67           -9.3987     0.3865     2.9387 H       
  68 H68          -10.9493     0.5223     2.0754 H       
@<TRIPOS>BOND
   1    1    2 ar
   2    1    6 ar
   3    2    3 ar
   4    2   15 1
   5    3    4 ar
   6    4    5 ar
   7    4    7 1
   8    5    6 ar
   9    5    9 1
  10    6   37 1
  11    7    8 1
  12    7   14 1
  13    8    9 ar
  14    8   10 ar
  15    9   13 ar
  16   10   11 ar
  17   10   38 1
  18   11   12 ar
  19   12   13 ar
  20   12   39 1
  21   13   40 1
  22   14   25 1
  23   14   24 1
  24   14   41 1
  25   15   16 1
  26   15   42 1
  27   16   17 ar
  28   16   21 ar
  29   17   18 ar
  30   18   19 ar
  31   18   43 1
  32   19   20 ar
  33   19   22 1
  34   20   21 ar
  35   20   44 1
  36   21   45 1
  37   22   23 1
  38   22   46 1
  39   22   47 1
  40   23   28 2
  41   23   29 am
  42   24   27 1
  43   24   48 1
  44   24   49 1
  45   25   26 1
  46   25   50 1
  47   25   51 1
  48   26   27 1
  49   26   52 1
  50   26   53 1
  51   27   54 1
  52   27   55 1
  53   29   30 1
  54   29   34 1
  55   30   31 1
  56   30   56 1
  57   30   57 1
  58   31   32 1
  59   31   58 1
  60   31   59 1
  61   32   33 1
  62   32   60 1
  63   33   34 1
  64   33   35 1
  65   33   36 1
  66   34   61 1
  67   34   62 1
  68   35   63 1
  69   35   64 1
  70   35   65 1
  71   36   66 1
  72   36   67 1
  73   36   68 1

#	End of record

