#	Name: ASD02038641
#	Creating user name:	WinNT
#	Creation time:	15. 06. 2019 20:17

#	Modifying user name:	WinNT
#	Modification time:	15. 06. 2019 20:17

#	Program:	/corina/corina34_cracker 3.40 0067  02.08.2006

@<TRIPOS>MOLECULE
ASD02038641
  50   52    0    0    0
SMALL
NO_CHARGES


@<TRIPOS>ATOM
   1 C1             2.0574    -2.6310    -4.0006 C.ar    
   2 C2             1.4701    -2.8637    -2.7659 C.ar    
   3 O3             0.1676    -3.2479    -2.6941 O.3     
   4 C4            -0.3722    -3.4702    -1.3898 C.3     
   5 C5            -1.8379    -3.8926    -1.5097 C.3     
   6 C6            -2.3803    -4.2507    -0.1246 C.3     
   7 N7            -3.7713    -4.7069    -0.2465 N.3     
   8 C8            -3.8320    -6.0749    -0.7770 C.3     
   9 C9            -5.2912    -6.4623    -1.0269 C.3     
  10 C10            3.3806    -2.2411    -4.0736 C.ar    
  11 C11            4.1219    -2.0828    -2.9121 C.ar    
  12 C12            3.5346    -2.3156    -1.6774 C.ar    
  13 C13            2.2113    -2.7050    -1.6044 C.ar    
  14 O14            5.4248    -1.6999    -2.9840 O.3     
  15 O15           -2.6010    -2.8150    -2.0561 O.3     
  16 C16           -4.4733    -4.6045     1.0393 C.3     
  17 C17           -6.0711    -6.3697     0.2875 C.3     
  18 C18           -5.9517    -4.9480     0.8436 C.3     
  19 C19           -7.5216    -6.6920     0.0363 C.ar    
  20 C20           -8.2831    -7.2734     1.0328 C.ar    
  21 C21           -8.0922    -6.4012    -1.1888 C.ar    
  22 C22           -9.4227    -6.6969    -1.4192 C.ar    
  23 C23          -10.1826    -7.2838    -0.4247 C.ar    
  24 C24           -9.6136    -7.5691     0.8024 C.ar    
  25 O25           -5.5306    -7.2980     1.2299 O.3     
  26 H26            1.4815    -2.7589    -4.9053 H       
  27 H27            0.1933    -4.2577    -0.8919 H       
  28 H28           -0.3054    -2.5512    -0.8075 H       
  29 H29           -1.9135    -4.7603    -2.1650 H       
  30 H30           -1.7737    -5.0460     0.3087 H       
  31 H31           -2.3412    -3.3721     0.5193 H       
  32 H32           -3.2771    -6.1260    -1.7138 H       
  33 H33           -3.3916    -6.7638    -0.0562 H       
  34 H34           -5.7282    -5.7822    -1.7580 H       
  35 H35           -5.3369    -7.4832    -1.4060 H       
  36 H36            3.8379    -2.0599    -5.0351 H       
  37 H37            4.1119    -2.1924    -0.7730 H       
  38 H38            1.7540    -2.8862    -0.6429 H       
  39 H39            5.5549    -0.7419    -2.9628 H       
  40 H40           -2.5792    -2.0080    -1.5237 H       
  41 H41           -4.0300    -5.3003     1.7516 H       
  42 H42           -4.3843    -3.5876     1.4217 H       
  43 H43           -6.4693    -4.8870     1.8009 H       
  44 H44           -6.3991    -4.2440     0.1419 H       
  45 H45           -7.8384    -7.4968     1.9914 H       
  46 H46           -7.4985    -5.9427    -1.9657 H       
  47 H47           -9.8686    -6.4691    -2.3761 H       
  48 H48          -11.2222    -7.5145    -0.6047 H       
  49 H49          -10.2073    -8.0276     1.5794 H       
  50 H50           -5.9777    -7.2933     2.0874 H       
@<TRIPOS>BOND
   1    1    2 ar
   2    1   10 ar
   3    1   26 1
   4    2    3 1
   5    2   13 ar
   6    3    4 1
   7    4    5 1
   8    4   27 1
   9    4   28 1
  10    5    6 1
  11    5   15 1
  12    5   29 1
  13    6    7 1
  14    6   30 1
  15    6   31 1
  16    7    8 1
  17    7   16 1
  18    8    9 1
  19    8   32 1
  20    8   33 1
  21    9   17 1
  22    9   34 1
  23    9   35 1
  24   10   11 ar
  25   10   36 1
  26   11   12 ar
  27   11   14 1
  28   12   13 ar
  29   12   37 1
  30   13   38 1
  31   14   39 1
  32   15   40 1
  33   16   18 1
  34   16   41 1
  35   16   42 1
  36   17   18 1
  37   17   19 1
  38   17   25 1
  39   18   43 1
  40   18   44 1
  41   19   20 ar
  42   19   21 ar
  43   20   24 ar
  44   20   45 1
  45   21   22 ar
  46   21   46 1
  47   22   23 ar
  48   22   47 1
  49   23   24 ar
  50   23   48 1
  51   24   49 1
  52   25   50 1

#	End of record

