#	Name: ASD01209068
#	Creating user name:	WinNT
#	Creation time:	15. 06. 2019 19:10

#	Modifying user name:	WinNT
#	Modification time:	15. 06. 2019 19:10

#	Program:	/corina/corina34_cracker 3.40 0067  02.08.2006

@<TRIPOS>MOLECULE
ASD01209068
  41   42    0    0    0
SMALL
NO_CHARGES


@<TRIPOS>ATOM
   1 C1             0.3781     0.0309    -2.0585 C.ar    
   2 S2            -0.2609     3.3448    -5.0786 S.o2    
   3 O3            -0.8301     2.6887    -6.2033 O.2     
   4 O4            -0.9865     4.3353    -4.3635 O.2     
   5 N5             0.5755    -0.9929    -1.1254 N.am    
   6 C6             1.6658    -0.9817    -0.3332 C.2     
   7 C7             2.7232     0.0754    -0.5216 C.3     
   8 O8             1.7960    -1.8224     0.5312 O.2     
   9 C9             3.1884     0.5807     0.8456 C.3     
  10 C10            3.9125    -0.5217    -1.2764 C.3     
  11 C11           -0.4030    -2.0770    -1.0096 C.3     
  12 C12            0.0625    -3.2622    -1.8156 C.2     
  13 C13            0.9100    -4.1711    -1.3311 C.2     
  14 S14            1.2203    -5.3983    -2.5523 S.3     
  15 C15            0.1498    -4.5839    -3.6856 C.2     
  16 C16           -0.3616    -3.4931    -3.1129 C.2     
  17 C17            0.2042     1.3400    -1.6288 C.ar    
  18 C18            0.0100     2.3484    -2.5524 C.ar    
  19 C19           -0.0117     2.0556    -3.9037 C.ar    
  20 C20            0.1611     0.7531    -4.3348 C.ar    
  21 C21            0.3614    -0.2590    -3.4165 C.ar    
  22 C22            1.4106     3.9347    -5.4645 C.3     
  23 H23            2.3092     0.9055    -1.0941 H       
  24 H24            3.4807    -0.2666     1.4659 H       
  25 H25            4.0411     1.2471     0.7158 H       
  26 H26            2.3749     1.1215     1.3292 H       
  27 H27            4.3265    -1.3517    -0.7039 H       
  28 H28            3.5811    -0.8817    -2.2504 H       
  29 H29            4.6773     0.2429    -1.4126 H       
  30 H30           -0.5031    -2.3659     0.0367 H       
  31 H31           -1.3678    -1.7376    -1.3866 H       
  32 H32            1.3403    -4.1556    -0.3407 H       
  33 H33           -0.0643    -4.9184    -4.6899 H       
  34 H34           -1.0482    -2.8356    -3.6254 H       
  35 H35            0.2203     1.5692    -0.5735 H       
  36 H36           -0.1253     3.3666    -2.2188 H       
  37 H37            0.1436     0.5276    -5.3908 H       
  38 H38            0.4964    -1.2760    -3.7539 H       
  39 H39            1.3513     4.7432    -6.1931 H       
  40 H40            1.8861     4.3000    -4.5543 H       
  41 H41            1.9986     3.1153    -5.8780 H       
@<TRIPOS>BOND
   1    1    5 1
   2    1   17 ar
   3    1   21 ar
   4    2    3 2
   5    2    4 2
   6    2   19 1
   7    2   22 1
   8    5    6 am
   9    5   11 1
  10    6    7 1
  11    6    8 2
  12    7    9 1
  13    7   10 1
  14    7   23 1
  15    9   24 1
  16    9   25 1
  17    9   26 1
  18   10   27 1
  19   10   28 1
  20   10   29 1
  21   11   12 1
  22   11   30 1
  23   11   31 1
  24   12   13 2
  25   12   16 1
  26   13   14 1
  27   13   32 1
  28   14   15 1
  29   15   16 2
  30   15   33 1
  31   16   34 1
  32   17   18 ar
  33   17   35 1
  34   18   19 ar
  35   18   36 1
  36   19   20 ar
  37   20   21 ar
  38   20   37 1
  39   21   38 1
  40   22   39 1
  41   22   40 1
  42   22   41 1

#	End of record

