#	Name: ASD01150717
#	Creating user name:	WinNT
#	Creation time:	15. 06. 2019 19:04

#	Modifying user name:	WinNT
#	Modification time:	15. 06. 2019 19:04

#	Program:	/corina/corina34_cracker 3.40 0067  02.08.2006

@<TRIPOS>MOLECULE
ASD01150717
  30   31    0    0    0
SMALL
NO_CHARGES


@<TRIPOS>ATOM
   1 C1            -0.0419     1.1921     0.0130 C.2     
   2 O2             0.6612     1.2329    -0.9784 O.2     
   3 C3             0.3960     0.4258     1.1986 C.ar    
   4 C4             1.5595    -0.3446     1.1453 C.ar    
   5 C5             1.9626    -1.0568     2.2556 C.ar    
   6 C6             1.2170    -1.0092     3.4204 C.ar    
   7 C7             0.0630    -0.2478     3.4801 C.ar    
   8 C8            -0.3488     0.4736     2.3789 C.ar    
   9 C9            -1.3273     1.9113     0.0343 C.ar    
  10 C10           -2.5346     1.2045    -0.0924 C.ar    
  11 C11           -3.7410     1.8920    -0.0710 C.ar    
  12 C12           -3.7538     3.2642     0.0736 C.ar    
  13 C13           -2.5622     3.9695     0.1991 C.ar    
  14 C14           -1.3531     3.3011     0.1867 C.ar    
  15 O15           -2.5873     5.3219     0.3406 O.3     
  16 C16           -3.8711     5.9493     0.3519 C.3     
  17 F17           -4.6269     5.4459     1.4161 F       
  18 F18           -3.7135     7.3311     0.5044 F       
  19 F19           -4.5297     5.6854    -0.8538 F       
  20 N20           -2.5217    -0.1779    -0.2390 N.pl3   
  21 H21            2.1421    -0.3830     0.2368 H       
  22 H22            2.8620    -1.6534     2.2157 H       
  23 H23            1.5370    -1.5691     4.2868 H       
  24 H24           -0.5142    -0.2150     4.3923 H       
  25 H25           -1.2472     1.0710     2.4283 H       
  26 H26           -4.6710     1.3516    -0.1682 H       
  27 H27           -4.6951     3.7935     0.0892 H       
  28 H28           -0.4295     3.8514     0.2895 H       
  29 H29           -1.6781    -0.6483    -0.3289 H       
  30 H30           -3.3563    -0.6721    -0.2515 H       
@<TRIPOS>BOND
   1    1    2 2
   2    1    3 1
   3    1    9 1
   4    3    4 ar
   5    3    8 ar
   6    4    5 ar
   7    4   21 1
   8    5    6 ar
   9    5   22 1
  10    6    7 ar
  11    6   23 1
  12    7    8 ar
  13    7   24 1
  14    8   25 1
  15    9   10 ar
  16    9   14 ar
  17   10   11 ar
  18   10   20 1
  19   11   12 ar
  20   11   26 1
  21   12   13 ar
  22   12   27 1
  23   13   14 ar
  24   13   15 1
  25   14   28 1
  26   15   16 1
  27   16   17 1
  28   16   18 1
  29   16   19 1
  30   20   29 1
  31   20   30 1

#	End of record

