#	Name: ASD00451039
#	Creating user name:	WinNT
#	Creation time:	15. 06. 2019 18:36

#	Modifying user name:	WinNT
#	Modification time:	15. 06. 2019 18:36

#	Program:	/corina/corina34_cracker 3.40 0067  02.08.2006

@<TRIPOS>MOLECULE
ASD00451039
  55   59    0    0    0
SMALL
NO_CHARGES


@<TRIPOS>ATOM
   1 C1             0.0743     1.5245    -0.0241 C.ar    
   2 C2             0.1699     0.1507    -0.0540 C.ar    
   3 C3             1.2497     2.3042    -0.0612 C.ar    
   4 N4            -1.1792     2.1423     0.0369 N.am    
   5 C5             1.4105    -0.4766    -0.1200 C.ar    
   6 C6             1.1942     3.7068    -0.0320 C.ar    
   7 C7             2.5090     1.6595    -0.1288 C.ar    
   8 C8             2.5660     0.2512    -0.1573 C.ar    
   9 C9             2.3485     4.4278    -0.0689 C.ar    
  10 C10            3.6788     2.4359    -0.1658 C.ar    
  11 O11            3.7673    -0.3807    -0.2212 O.3     
  12 C12            3.5876     3.7938    -0.1354 C.ar    
  13 C13            4.4770    -0.5184     0.9282 C.ar    
  14 C14            5.7621    -1.0551     0.9162 C.ar    
  15 C15            3.9426    -0.1215     2.1520 C.ar    
  16 C16            6.4613    -1.1814     2.1169 C.ar    
  17 N17            6.5931    -1.5399    -0.0918 N.am    
  18 C18            4.6948    -0.2775     3.2989 C.ar    
  19 N19            7.6946    -1.7385     1.8031 N.am    
  20 N20            5.9083    -0.7940     3.2565 N.ar    
  21 C21            7.7471    -1.9431     0.4738 C.2     
  22 O22            8.6929    -2.4192    -0.1257 O.2     
  23 C23           -2.2290     1.4856     0.5692 C.2     
  24 O24           -2.1053     0.3300     0.9270 O.2     
  25 N25           -3.4158     2.1097     0.7047 N.am    
  26 C26           -4.4723     1.4701     1.3680 C.ar    
  27 C27           -4.2090     0.4812     2.3026 C.ar    
  28 C28           -5.2528    -0.1490     2.9555 C.ar    
  29 C29           -6.5605     0.2041     2.6792 C.ar    
  30 C30           -6.8329     1.1895     1.7484 C.ar    
  31 C31           -5.7919     1.8312     1.0932 C.ar    
  32 C32            6.2677    -1.6013    -1.5188 C.3     
  33 S33           -6.1356     3.0875    -0.0935 S.3     
  34 C34           -7.9479     3.1639    -0.0937 C.3     
  35 F35           -8.4008     3.4963     1.1876 F       
  36 F36           -8.3736     4.1358    -1.0055 F       
  37 F37           -8.4672     1.9185    -0.4633 F       
  38 H38           -0.7291    -0.4472    -0.0256 H       
  39 H39           -1.2930     3.0433    -0.3038 H       
  40 H40            1.4606    -1.5552    -0.1417 H       
  41 H41            0.2406     4.2113     0.0191 H       
  42 H42            2.3031     5.5066    -0.0467 H       
  43 H43            4.6459     1.9579    -0.2170 H       
  44 H44            4.4887     4.3884    -0.1639 H       
  45 H45            2.9511     0.3037     2.2028 H       
  46 H46            4.2827     0.0298     4.2487 H       
  47 H47            8.4000    -1.9454     2.4360 H       
  48 H48           -3.5390     3.0014     0.3434 H       
  49 H49           -3.1887     0.2023     2.5208 H       
  50 H50           -5.0456    -0.9196     3.6832 H       
  51 H51           -7.3718    -0.2914     3.1917 H       
  52 H52           -7.8557     1.4627     1.5347 H       
  53 H53            6.5786    -0.6753    -2.0026 H       
  54 H54            6.7898    -2.4425    -1.9747 H       
  55 H55            5.1924    -1.7317    -1.6410 H       
@<TRIPOS>BOND
   1    1    2 ar
   2    1    3 ar
   3    1    4 1
   4    2    5 ar
   5    2   38 1
   6    3    6 ar
   7    3    7 ar
   8    4   23 am
   9    4   39 1
  10    5    8 ar
  11    5   40 1
  12    6    9 ar
  13    6   41 1
  14    7    8 ar
  15    7   10 ar
  16    8   11 1
  17    9   12 ar
  18    9   42 1
  19   10   12 ar
  20   10   43 1
  21   11   13 1
  22   12   44 1
  23   13   15 ar
  24   13   14 ar
  25   14   16 ar
  26   14   17 1
  27   15   18 ar
  28   15   45 1
  29   16   19 1
  30   16   20 ar
  31   17   21 am
  32   17   32 1
  33   18   20 ar
  34   18   46 1
  35   19   21 am
  36   19   47 1
  37   21   22 2
  38   23   24 2
  39   23   25 am
  40   25   26 1
  41   25   48 1
  42   26   27 ar
  43   26   31 ar
  44   27   28 ar
  45   27   49 1
  46   28   29 ar
  47   28   50 1
  48   29   30 ar
  49   29   51 1
  50   30   31 ar
  51   30   52 1
  52   31   33 1
  53   32   53 1
  54   32   54 1
  55   32   55 1
  56   33   34 1
  57   34   35 1
  58   34   36 1
  59   34   37 1

#	End of record

