#	Name: ASD01230004
#	Creating user name:	WinNT
#	Creation time:	15. 06. 2019 19:11

#	Modifying user name:	WinNT
#	Modification time:	15. 06. 2019 19:11

#	Program:	/corina/corina34_cracker 3.40 0067  02.08.2006

@<TRIPOS>MOLECULE
ASD01230004
  25   26    0    0    0
SMALL
NO_CHARGES


@<TRIPOS>ATOM
   1 C1            -0.0167     1.3796     0.0096 C.ar    
   2 C2             0.0021    -0.0041     0.0020 C.ar    
   3 C3            -1.1884    -0.7087     0.0026 C.ar    
   4 C4            -2.3904    -0.0330     0.0107 C.ar    
   5 C5            -2.4213     1.3553     0.0334 C.ar    
   6 C6            -1.2185     2.0589     0.0305 C.ar    
   7 S7            -3.9088    -0.9372    -0.0259 S.o2    
   8 N8            -5.0888     0.2001     0.2856 N.am    
   9 C9            -4.8977     1.5194    -0.3501 C.3     
  10 N10           -3.6160     2.0684     0.0859 N.pl3   
  11 O11           -4.0977    -1.3676    -1.3669 O.2     
  12 O12           -3.8869    -1.8209     1.0867 O.2     
  13 Cl13           1.4767     2.2647     0.0001 Cl      
  14 S14            1.5386    -0.8664    -0.0090 S.o2    
  15 O15            2.3345    -0.2812     1.0125 O.2     
  16 O16            1.2214    -2.2509    -0.0500 O.2     
  17 N17            2.2873    -0.5155    -1.4438 N.am    
  18 H18           -1.1764    -1.7886    -0.0036 H       
  19 H19           -1.2265     3.1388     0.0368 H       
  20 H20           -5.8536     0.0068     0.8501 H       
  21 H21           -4.8971     1.4062    -1.4342 H       
  22 H22           -5.7034     2.1897    -0.0507 H       
  23 H23           -3.5964     2.9753     0.4294 H       
  24 H24            1.8574     0.0728    -2.0841 H       
  25 H25            3.1558    -0.8983    -1.6440 H       
@<TRIPOS>BOND
   1    1    2 ar
   2    1   13 1
   3    1    6 ar
   4    2    3 ar
   5    2   14 1
   6    3    4 ar
   7    3   18 1
   8    4    5 ar
   9    4    7 1
  10    5    6 ar
  11    5   10 1
  12    6   19 1
  13    7    8 am
  14    7   11 2
  15    7   12 2
  16    8    9 1
  17    8   20 1
  18    9   10 1
  19    9   21 1
  20    9   22 1
  21   10   23 1
  22   14   15 2
  23   14   16 2
  24   14   17 am
  25   17   24 1
  26   17   25 1

#	End of record

