#	Name: ASD01917764
#	Creating user name:	WinNT
#	Creation time:	15. 06. 2019 20:10

#	Modifying user name:	WinNT
#	Modification time:	15. 06. 2019 20:10

#	Program:	/corina/corina34_cracker 3.40 0067  02.08.2006

@<TRIPOS>MOLECULE
ASD01917764
  43   46    0    0    0
SMALL
NO_CHARGES


@<TRIPOS>ATOM
   1 C1            -0.5772     1.8256     1.1099 C.2     
   2 C2            -0.3586     0.4979     1.1487 C.2     
   3 C3            -1.4076    -0.5260     0.7429 C.3     
   4 C4            -2.7887     0.1330     0.7714 C.3     
   5 N5            -2.7172     1.4307     0.0831 N.am    
   6 C6            -1.8705     2.4788     0.6794 C.3     
   7 C7            -3.4039     1.6536    -1.0549 C.2     
   8 O8            -4.0170     0.7460    -1.5827 O.2     
   9 C9            -3.4117     2.9993    -1.6605 C.ar    
  10 S10            0.8789     2.6520     1.6463 S.3     
  11 C11            1.6549     1.1473     1.8812 C.2     
  12 N12            0.8582     0.1852     1.5731 N.2     
  13 C13            3.0674     0.9729     2.3767 C.3     
  14 O14            3.9635     0.9520     1.2638 O.3     
  15 C15            5.2857     0.8006     1.5390 C.ar    
  16 C16            6.2115     0.7717     0.5062 C.ar    
  17 C17            7.5550     0.6176     0.7886 C.ar    
  18 C18            7.9772     0.4923     2.0992 C.ar    
  19 C19            7.0564     0.5204     3.1303 C.ar    
  20 C20            5.7125     0.6804     2.8536 C.ar    
  21 C21           -3.5645     4.1302    -0.8547 C.ar    
  22 C22           -3.5711     5.3843    -1.4252 C.ar    
  23 C23           -3.4264     5.5273    -2.7974 C.ar    
  24 C24           -3.2748     4.4111    -3.6040 C.ar    
  25 C25           -3.2602     3.1484    -3.0436 C.ar    
  26 F26           -3.4338     6.7602    -3.3497 F       
  27 F27           -3.1124     2.0599    -3.8301 F       
  28 H28           -1.1958    -0.8850    -0.2643 H       
  29 H29           -1.3888    -1.3631     1.4407 H       
  30 H30           -3.5093    -0.5090     0.2648 H       
  31 H31           -3.0985     0.2854     1.8053 H       
  32 H32           -2.3730     2.9138     1.5434 H       
  33 H33           -1.6647     3.2534    -0.0592 H       
  34 H34            3.3261     1.8015     3.0360 H       
  35 H35            3.1469     0.0341     2.9248 H       
  36 H36            5.8822     0.8691    -0.5177 H       
  37 H37            8.2761     0.5947    -0.0151 H       
  38 H38            9.0280     0.3720     2.3179 H       
  39 H39            7.3886     0.4216     4.1532 H       
  40 H40            4.9936     0.7023     3.6593 H       
  41 H41           -3.6777     4.0216     0.2138 H       
  42 H42           -3.6896     6.2586    -0.8023 H       
  43 H43           -3.1629     4.5286    -4.6717 H       
@<TRIPOS>BOND
   1    1    2 2
   2    1   10 1
   3    1    6 1
   4    2    3 1
   5    2   12 1
   6    3    4 1
   7    3   28 1
   8    3   29 1
   9    4    5 1
  10    4   30 1
  11    4   31 1
  12    5    6 1
  13    5    7 am
  14    6   32 1
  15    6   33 1
  16    7    8 2
  17    7    9 1
  18    9   21 ar
  19    9   25 ar
  20   10   11 1
  21   11   12 2
  22   11   13 1
  23   13   14 1
  24   13   34 1
  25   13   35 1
  26   14   15 1
  27   15   16 ar
  28   15   20 ar
  29   16   17 ar
  30   16   36 1
  31   17   18 ar
  32   17   37 1
  33   18   19 ar
  34   18   38 1
  35   19   20 ar
  36   19   39 1
  37   20   40 1
  38   21   22 ar
  39   21   41 1
  40   22   23 ar
  41   22   42 1
  42   23   24 ar
  43   23   26 1
  44   24   25 ar
  45   24   43 1
  46   25   27 1

#	End of record

