#	Name: ASD08830160
#	Creating user name:	WinNT
#	Creation time:	15. 06. 2019 21:19

#	Modifying user name:	WinNT
#	Modification time:	15. 06. 2019 21:19

#	Program:	/corina/corina34_cracker 3.40 0067  02.08.2006

@<TRIPOS>MOLECULE
ASD08830160
  45   46    0    0    0
SMALL
NO_CHARGES


@<TRIPOS>ATOM
   1 C1             0.5658     1.0796    -0.2470 C.ar    
   2 C2             0.1125    -0.2815    -0.5610 C.2     
   3 C3            -1.3581    -0.6101    -0.5379 C.3     
   4 C4            -1.6279    -1.8057    -1.4537 C.3     
   5 N5            -1.3276    -1.4358    -2.8432 N.3     
   6 O6             0.9217    -1.1413    -0.8389 O.2     
   7 C7             1.9346     1.3600    -0.1526 C.ar    
   8 C8             1.4140     3.6457     0.3448 C.ar    
   9 C9             0.0549     3.3680     0.2447 C.ar    
  10 C10           -1.2439    -2.6314    -3.7020 C.3     
  11 C11            2.3513     2.6384     0.1422 C.ar    
  12 C12           -0.3691     2.1028    -0.0468 C.ar    
  13 C13           -1.7808    -0.9566     0.8911 C.3     
  14 C14           -2.2648    -2.4462    -4.8443 C.3     
  15 C15           -2.4640    -0.9083    -4.8891 C.3     
  16 C16           -2.3666    -0.5364    -3.3885 C.3     
  17 C17            3.8229     2.9463     0.2457 C.3     
  18 C18            2.9476     0.2661    -0.3722 C.3     
  19 O19            1.8271     4.9051     0.6343 O.3     
  20 C20            0.8123     5.8934     0.8231 C.3     
  21 H21           -1.9282     0.2508    -0.8869 H       
  22 H22           -0.9955    -2.6419    -1.1555 H       
  23 H23           -2.6755    -2.0958    -1.3732 H       
  24 H24           -0.6679     4.1556     0.3984 H       
  25 H25           -0.2388    -2.7223    -4.1140 H       
  26 H26           -1.4918    -3.5214    -3.1237 H       
  27 H27           -1.4255     1.8916    -0.1236 H       
  28 H28           -1.1753    -1.7852     1.2584 H       
  29 H29           -1.6360    -0.0881     1.5336 H       
  30 H30           -2.8324    -1.2434     0.8995 H       
  31 H31           -1.8576    -2.8097    -5.7878 H       
  32 H32           -3.2024    -2.9496    -4.6086 H       
  33 H33           -1.6710    -0.4284    -5.4626 H       
  34 H34           -3.4443    -0.6532    -5.2918 H       
  35 H35           -3.3204    -0.7129    -2.8911 H       
  36 H36           -2.0651     0.5049    -3.2744 H       
  37 H37            4.2015     3.2440    -0.7322 H       
  38 H38            3.9750     3.7583     0.9568 H       
  39 H39            4.3565     2.0594     0.5873 H       
  40 H40            3.1283     0.1475    -1.4406 H       
  41 H41            3.8802     0.5290     0.1270 H       
  42 H42            2.5670    -0.6693     0.0380 H       
  43 H43            0.1680     5.5988     1.6515 H       
  44 H44            1.2773     6.8532     1.0480 H       
  45 H45            0.2177     5.9819    -0.0861 H       
@<TRIPOS>BOND
   1    1    2 1
   2    1    7 ar
   3    1   12 ar
   4    2    3 1
   5    2    6 2
   6    3    4 1
   7    3   13 1
   8    3   21 1
   9    4    5 1
  10    4   22 1
  11    4   23 1
  12    5   10 1
  13    5   16 1
  14    7   11 ar
  15    7   18 1
  16    8    9 ar
  17    8   19 1
  18    8   11 ar
  19    9   12 ar
  20    9   24 1
  21   10   14 1
  22   10   25 1
  23   10   26 1
  24   11   17 1
  25   12   27 1
  26   13   28 1
  27   13   29 1
  28   13   30 1
  29   14   15 1
  30   14   31 1
  31   14   32 1
  32   15   16 1
  33   15   33 1
  34   15   34 1
  35   16   35 1
  36   16   36 1
  37   17   37 1
  38   17   38 1
  39   17   39 1
  40   18   40 1
  41   18   41 1
  42   18   42 1
  43   19   20 1
  44   20   43 1
  45   20   44 1
  46   20   45 1

#	End of record

