#	Name: ASD02500127
#	Creating user name:	WinNT
#	Creation time:	15. 06. 2019 20:22

#	Modifying user name:	WinNT
#	Modification time:	15. 06. 2019 20:22

#	Program:	/corina/corina34_cracker 3.40 0067  02.08.2006

@<TRIPOS>MOLECULE
ASD02500127
  60   64    0    0    0
SMALL
NO_CHARGES


@<TRIPOS>ATOM
   1 N1            -3.9868     5.7113    -1.7307 N.ar    
   2 C2            -5.1657     6.2594    -1.8979 C.ar    
   3 C3            -6.1892     6.0957    -0.9666 C.ar    
   4 C4            -5.9762     5.3471     0.1557 C.ar    
   5 C5            -4.7090     4.7596     0.3316 C.ar    
   6 C6            -4.4160     3.9775     1.4601 C.ar    
   7 C7            -3.1779     3.4266     1.5939 C.ar    
   8 C8            -2.1969     3.6291     0.6256 C.ar    
   9 C9            -2.4468     4.3816    -0.4806 C.ar    
  10 C10           -3.7128     4.9670    -0.6546 C.ar    
  11 S11           -1.1876     4.6219    -1.6895 S.o2    
  12 O12           -1.1567     6.0156    -1.9651 O.2     
  13 O13           -0.0540     3.8935    -1.2384 O.2     
  14 N14           -1.6960     3.8814    -3.0808 N.am    
  15 C15           -1.8674     2.5019    -3.1114 C.ar    
  16 C16           -3.0206     1.9574    -3.6697 C.ar    
  17 C17           -3.1932     0.5925    -3.7015 C.ar    
  18 C18           -2.2090    -0.2475    -3.1724 C.ar    
  19 C19           -1.0520     0.3024    -2.6124 C.ar    
  20 C20           -0.8828     1.6678    -2.5888 C.ar    
  21 C21           -2.3910    -1.7110    -3.2044 C.2     
  22 O22           -1.4614    -2.4328    -3.5101 O.2     
  23 N23           -3.5877    -2.2482    -2.8948 N.am    
  24 C24           -3.7593    -3.7064    -2.8321 C.3     
  25 C25           -4.3213    -4.0748    -1.4534 C.3     
  26 N26           -5.4778    -3.2128    -1.1721 N.am    
  27 C27           -5.3062    -1.7546    -1.2349 C.3     
  28 C28           -4.7429    -1.3861    -2.6080 C.3     
  29 C29           -6.6745    -3.7500    -0.8625 C.2     
  30 C30           -7.8020    -2.8730    -0.4806 C.ar    
  31 C31           -9.1044    -3.2008    -0.8603 C.ar    
  32 C32          -10.1534    -2.3770    -0.4997 C.ar    
  33 C33           -9.9130    -1.2280     0.2371 C.ar    
  34 C34           -8.6240    -0.8995     0.6154 C.ar    
  35 C35           -7.5688    -1.7171     0.2657 C.ar    
  36 O36           -6.8269    -4.9554    -0.8971 O.2     
  37 F37          -11.4151    -2.6917    -0.8662 F       
  38 H38           -5.3486     6.8541    -2.7807 H       
  39 H39           -7.1499     6.5605    -1.1320 H       
  40 H40           -6.7580     5.2100     0.8880 H       
  41 H41           -5.1680     3.8141     2.2178 H       
  42 H42           -2.9534     2.8251     2.4623 H       
  43 H43           -1.2224     3.1819     0.7551 H       
  44 H44           -1.8742     4.4100    -3.8743 H       
  45 H45           -3.7808     2.6069    -4.0780 H       
  46 H46           -4.0882     0.1708    -4.1344 H       
  47 H47           -0.2900    -0.3440    -2.2026 H       
  48 H48            0.0129     2.0930    -2.1606 H       
  49 H49           -4.4546    -4.0267    -3.6080 H       
  50 H50           -2.7956    -4.1947    -2.9767 H       
  51 H51           -4.6345    -5.1189    -1.4531 H       
  52 H52           -3.5559    -3.9198    -0.6930 H       
  53 H53           -6.2700    -1.2663    -1.0902 H       
  54 H54           -4.6110    -1.4343    -0.4589 H       
  55 H55           -4.4285    -0.3424    -2.6047 H       
  56 H56           -5.5098    -1.5374    -3.3677 H       
  57 H57           -9.2918    -4.0960    -1.4348 H       
  58 H58          -10.7356    -0.5865     0.5167 H       
  59 H59           -8.4432    -0.0025     1.1892 H       
  60 H60           -6.5635    -1.4607     0.5658 H       
@<TRIPOS>BOND
   1    1    2 ar
   2    1   10 ar
   3    2    3 ar
   4    2   38 1
   5    3    4 ar
   6    3   39 1
   7    4    5 ar
   8    4   40 1
   9    5    6 ar
  10    5   10 ar
  11    6    7 ar
  12    6   41 1
  13    7    8 ar
  14    7   42 1
  15    8    9 ar
  16    8   43 1
  17    9   10 ar
  18    9   11 1
  19   11   12 2
  20   11   13 2
  21   11   14 am
  22   14   15 1
  23   14   44 1
  24   15   16 ar
  25   15   20 ar
  26   16   17 ar
  27   16   45 1
  28   17   18 ar
  29   17   46 1
  30   18   19 ar
  31   18   21 1
  32   19   20 ar
  33   19   47 1
  34   20   48 1
  35   21   22 2
  36   21   23 am
  37   23   24 1
  38   23   28 1
  39   24   25 1
  40   24   49 1
  41   24   50 1
  42   25   26 1
  43   25   51 1
  44   25   52 1
  45   26   27 1
  46   26   29 am
  47   27   28 1
  48   27   53 1
  49   27   54 1
  50   28   55 1
  51   28   56 1
  52   29   30 1
  53   29   36 2
  54   30   31 ar
  55   30   35 ar
  56   31   32 ar
  57   31   57 1
  58   32   33 ar
  59   32   37 1
  60   33   34 ar
  61   33   58 1
  62   34   35 ar
  63   34   59 1
  64   35   60 1

#	End of record

