#	Name: ASD01915259
#	Creating user name:	WinNT
#	Creation time:	15. 06. 2019 20:05

#	Modifying user name:	WinNT
#	Modification time:	15. 06. 2019 20:05

#	Program:	/corina/corina34_cracker 3.40 0067  02.08.2006

@<TRIPOS>MOLECULE
ASD01915259
  44   46    0    0    0
SMALL
NO_CHARGES


@<TRIPOS>ATOM
   1 C1            -0.0167     1.3823     0.0096 C.ar    
   2 C2             0.0021    -0.0041     0.0020 C.ar    
   3 C3            -1.1955    -0.6939     0.0102 C.ar    
   4 N4            -2.3455    -0.0487     0.0247 N.ar    
   5 C5            -2.4014     1.2688     0.0323 C.ar    
   6 C6            -1.2448     2.0255     0.0307 C.ar    
   7 C7             1.2672     2.1712     0.0016 C.3     
   8 O8             1.6602     2.4279    -1.3481 O.3     
   9 C9             2.8728     3.1742    -1.4685 C.3     
  10 C10            3.1900     3.3855    -2.9265 C.2     
  11 N11            4.2955     4.0687    -3.2836 N.am    
  12 O12            2.4504     2.9407    -3.7786 O.2     
  13 C13            4.6237     4.2863    -4.7007 C.3     
  14 C14            4.8886     5.7803    -4.9152 C.3     
  15 N15            5.9117     6.2344    -3.9639 N.3     
  16 C16            5.4478     6.0975    -2.5768 C.3     
  17 C17            5.2025     4.6218    -2.2664 C.3     
  18 C18            6.2998     7.5518    -4.2354 C.ar    
  19 C19            6.8541     7.8733    -5.4661 C.ar    
  20 C20            7.2362     9.1746    -5.7325 C.ar    
  21 C21            7.0666    10.1578    -4.7731 C.ar    
  22 C22            6.5137     9.8407    -3.5434 C.ar    
  23 C23            6.1250     8.5416    -3.2740 C.ar    
  24 F24            7.4415    11.4287    -5.0364 F       
  25 F25            5.5857     8.2320    -2.0746 F       
  26 H26            0.9407    -0.5382    -0.0105 H       
  27 H27           -1.1894    -1.7738     0.0044 H       
  28 H28           -3.3620     1.7622     0.0438 H       
  29 H29           -1.2971     3.1042     0.0372 H       
  30 H30            1.1158     3.1170     0.5220 H       
  31 H31            2.0476     1.6004     0.5050 H       
  32 H32            2.7547     4.1408    -0.9786 H       
  33 H33            3.6865     2.6243    -0.9957 H       
  34 H34            5.5145     3.7152    -4.9621 H       
  35 H35            3.7867     3.9698    -5.3231 H       
  36 H36            5.2404     5.9448    -5.9337 H       
  37 H37            3.9674     6.3400    -4.7533 H       
  38 H38            6.2051     6.4920    -1.8993 H       
  39 H39            4.5188     6.6528    -2.4475 H       
  40 H40            4.7505     4.5254    -1.2792 H       
  41 H41            6.1478     4.0798    -2.2938 H       
  42 H42            6.9872     7.1070    -6.2154 H       
  43 H43            7.6679     9.4245    -6.6904 H       
  44 H44            6.3826    10.6094    -2.7962 H       
@<TRIPOS>BOND
   1    1    2 ar
   2    1    7 1
   3    1    6 ar
   4    2    3 ar
   5    2   26 1
   6    3    4 ar
   7    3   27 1
   8    4    5 ar
   9    5    6 ar
  10    5   28 1
  11    6   29 1
  12    7    8 1
  13    7   30 1
  14    7   31 1
  15    8    9 1
  16    9   10 1
  17    9   32 1
  18    9   33 1
  19   10   11 am
  20   10   12 2
  21   11   13 1
  22   11   17 1
  23   13   14 1
  24   13   34 1
  25   13   35 1
  26   14   15 1
  27   14   36 1
  28   14   37 1
  29   15   16 1
  30   15   18 1
  31   16   17 1
  32   16   38 1
  33   16   39 1
  34   17   40 1
  35   17   41 1
  36   18   19 ar
  37   18   23 ar
  38   19   20 ar
  39   19   42 1
  40   20   21 ar
  41   20   43 1
  42   21   22 ar
  43   21   24 1
  44   22   23 ar
  45   22   44 1
  46   23   25 1

#	End of record

