#	Name: ASD00960047
#	Creating user name:	WinNT
#	Creation time:	15. 06. 2019 18:53

#	Modifying user name:	WinNT
#	Modification time:	15. 06. 2019 18:53

#	Program:	/corina/corina34_cracker 3.40 0067  02.08.2006

@<TRIPOS>MOLECULE
ASD00960047
  36   38    0    0    0
SMALL
NO_CHARGES


@<TRIPOS>ATOM
   1 F1             1.0478    -0.5625    -0.4695 F       
   2 C2            -0.2921     1.4476    -0.3151 C.3     
   3 C3            -0.2382    -0.0911    -0.1846 C.3     
   4 C4            -0.5962    -0.3551     1.2947 C.3     
   5 O5            -1.3510     0.8060     1.7047 O.3     
   6 C6            -0.6762     1.9311     1.1009 C.3     
   7 C7            -1.6179     3.1340     1.0158 C.3     
   8 C8            -1.4388    -1.5985     1.4168 C.2     
   9 C9            -0.9603    -2.8596     1.4971 C.2     
  10 N10           -2.7945    -1.6234     1.4688 N.pl3   
  11 C11           -3.2105    -2.9250     1.5801 C.2     
  12 C12           -2.0668    -3.7331     1.6005 C.2     
  13 N13           -3.7688    -0.6149     1.4312 N.2     
  14 C14           -5.0359    -0.9261     1.5016 C.2     
  15 N15           -5.4506    -2.1845     1.6097 N.2     
  16 C16           -4.5947    -3.1922     1.6511 C.2     
  17 O17           -1.9265     3.5916     2.3339 O.3     
  18 N18           -5.0504    -4.4914     1.7633 N.pl3   
  19 C19           -2.0255    -5.1956     1.7078 C.2     
  20 O20           -2.8222    -5.7762     2.4215 O.2     
  21 N21           -1.1051    -5.8963     1.0161 N.am    
  22 O22            0.9866     1.9633    -0.6906 O.3     
  23 *23            1.1697     2.0841    -2.0835 Du      
  24 H24           -1.0501     1.7431    -1.0405 H       
  25 H25           -0.9713    -0.5561    -0.8438 H       
  26 H26            0.3099    -0.4494     1.8933 H       
  27 H27            0.2176     2.1874     1.6697 H       
  28 H28           -1.1343     3.9352     0.4569 H       
  29 H29           -2.5370     2.8406     0.5085 H       
  30 H30            0.0803    -3.1483     1.4843 H       
  31 H31           -5.7704    -0.1350     1.4714 H       
  32 H32           -2.5207     4.3541     2.3564 H       
  33 H33           -5.9458    -4.6645     2.0939 H       
  34 H34           -4.4750    -5.2307     1.5116 H       
  35 H35           -0.4701    -5.4335     0.4473 H       
  36 H36           -1.0778    -6.8633     1.0870 H       
@<TRIPOS>BOND
   1    1    3 1
   2    2    3 1
   3    2   22 1
   4    2    6 1
   5    2   24 1
   6    3    4 1
   7    3   25 1
   8    4    5 1
   9    4    8 1
  10    4   26 1
  11    5    6 1
  12    6    7 1
  13    6   27 1
  14    7   17 1
  15    7   28 1
  16    7   29 1
  17    8    9 2
  18    8   10 1
  19    9   12 1
  20    9   30 1
  21   10   11 1
  22   10   13 1
  23   11   12 2
  24   11   16 1
  25   12   19 1
  26   13   14 2
  27   14   15 1
  28   14   31 1
  29   15   16 2
  30   16   18 1
  31   17   32 1
  32   18   33 1
  33   18   34 1
  34   19   20 2
  35   19   21 am
  36   21   35 1
  37   21   36 1
  38   22   23 1

#	End of record

