#	Name: ASD03331285
#	Creating user name:	WinNT
#	Creation time:	15. 06. 2019 20:38

#	Modifying user name:	WinNT
#	Modification time:	15. 06. 2019 20:38

#	Program:	/corina/corina34_cracker 3.40 0067  02.08.2006

@<TRIPOS>MOLECULE
ASD03331285
  47   49    0    0    0
SMALL
NO_CHARGES


@<TRIPOS>ATOM
   1 N1            -0.0459     1.4956     0.5698 N.am    
   2 C2             0.0019     0.1506     1.1631 C.3     
   3 C3             0.5966    -0.8151     0.1327 C.3     
   4 N4             1.8894    -0.2950    -0.3322 N.3     
   5 C5             1.7288     0.9911    -1.0237 C.3     
   6 C6             1.1805     2.0309    -0.0406 C.3     
   7 C7            -1.1849     2.2161     0.5803 C.2     
   8 O8            -2.2139     1.7207     0.9973 O.2     
   9 N9            -1.1831     3.4859     0.1284 N.am    
  10 C10           -2.3851     4.1963     0.0330 C.ar    
  11 C11           -2.4015     5.5681     0.2480 C.ar    
  12 C12            2.5723    -1.2723    -1.1903 C.3     
  13 C13            3.7648    -0.6215    -1.8425 C.ar    
  14 C14            3.6813    -0.1752    -3.1469 C.ar    
  15 C15            4.7752     0.4221    -3.7460 C.ar    
  16 C16            5.9549     0.5740    -3.0414 C.ar    
  17 C17            6.0437     0.1289    -1.7364 C.ar    
  18 C18            4.9459    -0.4650    -1.1312 C.ar    
  19 C19           -3.5629     3.5318    -0.2826 C.ar    
  20 C20           -4.7474     4.2358    -0.3765 C.ar    
  21 C21           -4.7613     5.6010    -0.1566 C.ar    
  22 C22           -3.5893     6.2664     0.1527 C.ar    
  23 O23            5.0307    -0.9037     0.1522 O.3     
  24 C24            6.2814    -0.7211     0.8189 C.3     
  25 H25            0.6285     0.1659     2.0549 H       
  26 H26           -1.0063    -0.1697     1.4260 H       
  27 H27            0.7419    -1.7929     0.5920 H       
  28 H28           -0.0837    -0.9080    -0.7139 H       
  29 H29            2.6951     1.3233    -1.4030 H       
  30 H30            1.0327     0.8731    -1.8541 H       
  31 H31            0.9515     2.9537    -0.5736 H       
  32 H32            1.9203     2.2269     0.7355 H       
  33 H33           -0.3488     3.9073    -0.1307 H       
  34 H34           -1.4865     6.0883     0.4900 H       
  35 H35            2.9044    -2.1167    -0.5862 H       
  36 H36            1.8845    -1.6239    -1.9593 H       
  37 H37            2.7610    -0.2931    -3.6996 H       
  38 H38            4.7080     0.7700    -4.7662 H       
  39 H39            6.8078     1.0408    -3.5115 H       
  40 H40            6.9656     0.2475    -1.1865 H       
  41 H41           -3.5526     2.4657    -0.4549 H       
  42 H42           -5.6637     3.7197    -0.6223 H       
  43 H43           -5.6889     6.1493    -0.2306 H       
  44 H44           -3.6034     7.3327     0.3239 H       
  45 H45            7.0635    -1.2516     0.2758 H       
  46 H46            6.5216     0.3415     0.8561 H       
  47 H47            6.2131    -1.1139     1.8334 H       
@<TRIPOS>BOND
   1    1    2 1
   2    1    6 1
   3    1    7 am
   4    2    3 1
   5    2   25 1
   6    2   26 1
   7    3    4 1
   8    3   27 1
   9    3   28 1
  10    4    5 1
  11    4   12 1
  12    5    6 1
  13    5   29 1
  14    5   30 1
  15    6   31 1
  16    6   32 1
  17    7    8 2
  18    7    9 am
  19    9   10 1
  20    9   33 1
  21   10   11 ar
  22   10   19 ar
  23   11   22 ar
  24   11   34 1
  25   12   13 1
  26   12   35 1
  27   12   36 1
  28   13   14 ar
  29   13   18 ar
  30   14   15 ar
  31   14   37 1
  32   15   16 ar
  33   15   38 1
  34   16   17 ar
  35   16   39 1
  36   17   18 ar
  37   17   40 1
  38   18   23 1
  39   19   20 ar
  40   19   41 1
  41   20   21 ar
  42   20   42 1
  43   21   22 ar
  44   21   43 1
  45   22   44 1
  46   23   24 1
  47   24   45 1
  48   24   46 1
  49   24   47 1

#	End of record

