#	Name: ASD01152539
#	Creating user name:	WinNT
#	Creation time:	15. 06. 2019 19:06

#	Modifying user name:	WinNT
#	Modification time:	15. 06. 2019 19:06

#	Program:	/corina/corina34_cracker 3.40 0067  02.08.2006

@<TRIPOS>MOLECULE
ASD01152539
  56   58    0    0    0
SMALL
NO_CHARGES


@<TRIPOS>ATOM
   1 C1            -0.5540     1.4511     1.2716 C.2     
   2 N2            -0.5764     0.1494     1.3799 N.2     
   3 N3            -1.7525    -0.5393     1.6760 N.am    
   4 C4            -2.9592     0.0508     1.6594 C.2     
   5 C5            -3.1018     1.4807     1.1936 C.3     
   6 C6            -1.8001     2.1982     1.4997 C.2     
   7 C7            -3.3738     1.5105    -0.3117 C.3     
   8 O8            -1.7894     3.3412     1.9080 O.2     
   9 C9            -1.6724    -1.8983     2.0027 C.ar    
  10 O10           -3.9383    -0.5672     2.0194 O.2     
  11 C11           -3.6364     2.9293    -0.7467 C.ar    
  12 C12           -0.7529    -2.3323     2.9475 C.ar    
  13 C13           -2.5173    -2.8124     1.3856 C.ar    
  14 C14           -2.4398    -4.1538     1.7074 C.ar    
  15 C15           -1.5213    -4.5908     2.6451 C.ar    
  16 C16           -0.6764    -3.6792     3.2694 C.ar    
  17 C17           -2.5878     3.7313    -1.1541 C.ar    
  18 C18           -4.9272     3.4251    -0.7431 C.ar    
  19 C19           -5.1719     4.7258    -1.1424 C.ar    
  20 C20           -2.8296     5.0370    -1.5549 C.ar    
  21 F21           -1.4484    -5.9029     2.9583 F       
  22 C22           -4.1256     5.5343    -1.5464 C.ar    
  23 Cl23          -4.4332     7.1673    -2.0488 Cl      
  24 O24           -1.7996     5.8278    -1.9564 O.3     
  25 C25           -0.5113     5.2167    -2.0512 C.3     
  26 C26            0.3560     6.0052    -3.0345 C.3     
  27 C27            0.1541     5.2132    -0.6735 C.3     
  28 O28            0.5978     2.1015     0.9603 O.3     
  29 C29            1.7629     1.2985     0.7613 C.3     
  30 N30            0.2499    -4.1207     4.2224 N.am    
  31 C31            0.7988    -3.2432     5.0856 C.2     
  32 O32            0.4312    -2.0874     5.0914 O.2     
  33 C33            1.8694    -3.6981     6.0437 C.3     
  34 H34           -3.9210     1.9627     1.7271 H       
  35 H35           -2.5067     1.1214    -0.8454 H       
  36 H36           -4.2448     0.8947    -0.5358 H       
  37 H37           -0.0980    -1.6225     3.4308 H       
  38 H38           -3.2358    -2.4740     0.6538 H       
  39 H39           -3.0977    -4.8624     1.2263 H       
  40 H40           -1.5804     3.3420    -1.1601 H       
  41 H41           -5.7458     2.7949    -0.4282 H       
  42 H42           -6.1810     5.1106    -1.1390 H       
  43 H43           -0.6207     4.1914    -2.4045 H       
  44 H44            0.4653     7.0306    -2.6812 H       
  45 H45            1.3387     5.5391    -3.1069 H       
  46 H46           -0.1181     6.0077    -4.0160 H       
  47 H47            1.1368     4.7471    -0.7458 H       
  48 H48            0.2634     6.2386    -0.3202 H       
  49 H49           -0.4638     4.6515     0.0270 H       
  50 H50            1.9790     0.7398     1.6719 H       
  51 H51            1.5886     0.6025    -0.0593 H       
  52 H52            2.6098     1.9406     0.5193 H       
  53 H53            0.4964    -5.0581     4.2613 H       
  54 H54            2.8481    -3.5751     5.5800 H       
  55 H55            1.8208    -3.0999     6.9536 H       
  56 H56            1.7137    -4.7483     6.2906 H       
@<TRIPOS>BOND
   1    1    2 2
   2    1   28 1
   3    1    6 1
   4    2    3 1
   5    3    4 am
   6    3    9 1
   7    4    5 1
   8    4   10 2
   9    5    6 1
  10    5    7 1
  11    5   34 1
  12    6    8 2
  13    7   11 1
  14    7   35 1
  15    7   36 1
  16    9   12 ar
  17    9   13 ar
  18   11   17 ar
  19   11   18 ar
  20   12   16 ar
  21   12   37 1
  22   13   14 ar
  23   13   38 1
  24   14   15 ar
  25   14   39 1
  26   15   16 ar
  27   15   21 1
  28   16   30 1
  29   17   20 ar
  30   17   40 1
  31   18   19 ar
  32   18   41 1
  33   19   22 ar
  34   19   42 1
  35   20   24 1
  36   20   22 ar
  37   22   23 1
  38   24   25 1
  39   25   26 1
  40   25   27 1
  41   25   43 1
  42   26   44 1
  43   26   45 1
  44   26   46 1
  45   27   47 1
  46   27   48 1
  47   27   49 1
  48   28   29 1
  49   29   50 1
  50   29   51 1
  51   29   52 1
  52   30   31 am
  53   30   53 1
  54   31   32 2
  55   31   33 1
  56   33   54 1
  57   33   55 1
  58   33   56 1

#	End of record

