#	Name: ASD01028395
#	Creating user name:	WinNT
#	Creation time:	15. 06. 2019 18:57

#	Modifying user name:	WinNT
#	Modification time:	15. 06. 2019 18:57

#	Program:	/corina/corina34_cracker 3.40 0067  02.08.2006

@<TRIPOS>MOLECULE
ASD01028395
  57   62    0    0    0
SMALL
NO_CHARGES


@<TRIPOS>ATOM
   1 C1            -0.0171     1.4118     0.0098 C.ar    
   2 C2             0.0021    -0.0041     0.0020 C.ar    
   3 C3             1.2105     2.1116     0.0018 C.ar    
   4 C4             2.3793     1.3714    -0.0133 C.ar    
   5 C5             2.3160    -0.0162    -0.0202 C.ar    
   6 N6             1.1704    -0.6565    -0.0123 N.ar    
   7 O7             1.2420     3.4670     0.0084 O.3     
   8 C8             2.5299     4.0861    -0.0005 C.3     
   9 C9             2.3673     5.5842     0.0086 C.2     
  10 N10            2.2915     6.3713     1.1040 N.pl3   
  11 C11            2.1486     7.6569     0.6381 C.2     
  12 N12            2.1449     7.5870    -0.6830 N.2     
  13 N13            2.2796     6.3586    -1.0440 N.2     
  14 N14            2.3293     6.1247     2.4779 N.2     
  15 C15            2.2291     7.1156     3.3360 C.2     
  16 C16            2.0815     8.4458     2.8891 C.2     
  17 C17            2.0417     8.7172     1.5579 C.2     
  18 C18            2.2711     6.8318     4.7917 C.ar    
  19 C19           -1.2152    -0.7043     0.0100 C.ar    
  20 C20           -2.4012    -0.0065     0.0251 C.ar    
  21 C21           -2.4085     1.3917     0.0322 C.ar    
  22 C22           -1.2431     2.0938     0.0309 C.ar    
  23 O23           -3.5786    -0.6840     0.0328 O.3     
  24 C24           -4.7758     0.0961     0.0485 C.3     
  25 C25            2.1655     7.8769     5.7080 C.ar    
  26 C26            2.2010     7.6050     7.0616 C.ar    
  27 C27            2.3407     6.3064     7.5034 C.ar    
  28 C28            2.4101     5.5229     5.2402 C.ar    
  29 C29            2.4553     5.2531     6.6039 C.ar    
  30 C30            2.3935     5.7080     8.8963 C.3     
  31 C31            2.1526     4.2071     8.6096 C.3     
  32 O32            2.6060     4.0655     7.2527 O.3     
  33 C33            2.9838     3.3349     9.5526 C.3     
  34 C34            0.6655     3.8656     8.7226 C.3     
  35 H35            3.3370     1.8705    -0.0202 H       
  36 H36            3.2348    -0.5838    -0.0321 H       
  37 H37            3.0883     3.7758     0.8827 H       
  38 H38            3.0716     3.7849    -0.8972 H       
  39 H39            2.0000     9.2496     3.6059 H       
  40 H40            1.9285     9.7334     1.2102 H       
  41 H41           -1.2205    -1.7843     0.0039 H       
  42 H42           -3.3501     1.9205     0.0433 H       
  43 H43           -1.2617     3.1736     0.0364 H       
  44 H44           -4.8082     0.7297    -0.8378 H       
  45 H45           -5.6412    -0.5666     0.0533 H       
  46 H46           -4.7911     0.7202     0.9420 H       
  47 H47            2.0569     8.8939     5.3613 H       
  48 H48            2.1196     8.4112     7.7755 H       
  49 H49            2.4873     4.7146     4.5282 H       
  50 H50            3.3716     5.8656     9.3510 H       
  51 H51            1.6027     6.1161     9.5258 H       
  52 H52            2.7028     3.5455    10.5845 H       
  53 H53            2.7985     2.2835     9.3330 H       
  54 H54            4.0422     3.5544     9.4123 H       
  55 H55            0.1011     4.4566     8.0013 H       
  56 H56            0.5196     2.8052     8.5171 H       
  57 H57            0.3163     4.0918     9.7301 H       
@<TRIPOS>BOND
   1    1    2 ar
   2    1    3 ar
   3    1   22 ar
   4    2   19 ar
   5    2    6 ar
   6    3    4 ar
   7    3    7 1
   8    4    5 ar
   9    4   35 1
  10    5    6 ar
  11    5   36 1
  12    7    8 1
  13    8    9 1
  14    8   37 1
  15    8   38 1
  16    9   10 1
  17    9   13 2
  18   10   11 1
  19   10   14 1
  20   11   12 2
  21   11   17 1
  22   12   13 1
  23   14   15 2
  24   15   16 1
  25   15   18 1
  26   16   17 2
  27   16   39 1
  28   17   40 1
  29   18   25 ar
  30   18   28 ar
  31   19   20 ar
  32   19   41 1
  33   20   21 ar
  34   20   23 1
  35   21   22 ar
  36   21   42 1
  37   22   43 1
  38   23   24 1
  39   24   44 1
  40   24   45 1
  41   24   46 1
  42   25   26 ar
  43   25   47 1
  44   26   27 ar
  45   26   48 1
  46   27   29 ar
  47   27   30 1
  48   28   29 ar
  49   28   49 1
  50   29   32 1
  51   30   31 1
  52   30   50 1
  53   30   51 1
  54   31   32 1
  55   31   33 1
  56   31   34 1
  57   33   52 1
  58   33   53 1
  59   33   54 1
  60   34   55 1
  61   34   56 1
  62   34   57 1

#	End of record

