#	Name: ASD05730040
#	Creating user name:	WinNT
#	Creation time:	15. 06. 2019 21:02

#	Modifying user name:	WinNT
#	Modification time:	15. 06. 2019 21:02

#	Program:	/corina/corina34_cracker 3.40 0067  02.08.2006

@<TRIPOS>MOLECULE
ASD05730040
  81   87    0    0    0
SMALL
NO_CHARGES


@<TRIPOS>ATOM
   1 N1            -0.0621     1.3961    -0.0107 N.3     
   2 C2            -0.0318    -0.0046    -0.0135 C.ar    
   3 C3             1.0183    -0.6748    -0.6247 C.ar    
   4 C4             1.0487    -2.0561    -0.6273 C.ar    
   5 C5             0.0288    -2.7747    -0.0184 C.ar    
   6 C6            -1.0231    -2.1054     0.5939 C.ar    
   7 C7            -1.0514    -0.7237     0.6014 C.ar    
   8 N8             0.0604    -4.1749    -0.0220 N.pl3   
   9 C9            -0.4245    -4.8794     1.0626 C.ar    
  10 N10           -0.4874    -6.2002     0.9889 N.ar    
  11 C11           -0.9479    -6.9118     2.0115 C.ar    
  12 C12           -1.3680    -6.2326     3.1757 C.ar    
  13 C13           -1.2814    -4.8325     3.2041 C.ar    
  14 N14           -0.8058    -4.2074     2.1435 N.ar    
  15 N15           -1.0170    -8.2804     1.9437 N.am    
  16 C16           -1.4853    -8.9971     2.9835 C.2     
  17 C17           -1.9295    -8.3237     4.2056 C.2     
  18 C18           -1.8630    -6.9583     4.2830 C.2     
  19 C19           -0.5775    -8.9693     0.7277 C.3     
  20 O20           -1.5400   -10.2116     2.9067 O.2     
  21 C21           -2.4449    -9.1130     5.3488 C.ar    
  22 C22           -3.7758    -8.9845     5.7448 C.ar    
  23 C23            1.1204     1.9471     0.6660 C.3     
  24 C24            0.5747    -9.9349     1.0562 C.3     
  25 C25            0.0856   -11.3487     0.6798 C.3     
  26 C26           -1.0211   -11.0996    -0.3748 C.3     
  27 C27           -1.7265    -9.8300     0.1633 C.3     
  28 C28           -1.6024    -9.9915     6.0294 C.ar    
  29 C29           -2.0881   -10.7238     7.0933 C.ar    
  30 C30           -3.4079   -10.5878     7.4851 C.ar    
  31 C31           -4.2500    -9.7222     6.8102 C.ar    
  32 S32           -4.0209   -11.5267     8.8443 S.o2    
  33 C33           -3.7191   -10.4769    10.2925 C.3     
  34 O34           -5.4148   -11.6396     8.5919 O.2     
  35 O35           -3.1874   -12.6770     8.8798 O.2     
  36 C36           -4.0388   -11.0632    11.6690 C.3     
  37 C37           -2.5832   -10.8817    11.2341 C.3     
  38 C38            1.0105     3.4727     0.7179 C.3     
  39 N39            0.8962     3.9998    -0.6492 N.3     
  40 C40           -0.2862     3.4488    -1.3258 C.3     
  41 C41           -0.1763     1.9232    -1.3777 C.3     
  42 F42           -2.0739    -0.0719     1.1971 F       
  43 C43            2.2593     4.0520     1.3856 C.3     
  44 C44           -0.3644     4.0037    -2.7495 C.3     
  45 H45            1.8119    -0.1165    -1.0989 H       
  46 H46            1.8661    -2.5770    -1.1035 H       
  47 H47           -1.8166    -2.6645     1.0673 H       
  48 H48            0.4228    -4.6500    -0.7861 H       
  49 H49           -1.5935    -4.2783     4.0769 H       
  50 H50           -2.1859    -6.4434     5.1758 H       
  51 H51           -0.2542    -8.2419    -0.0170 H       
  52 H52           -4.4340    -8.3088     5.2189 H       
  53 H53            1.1761     1.5518     1.6803 H       
  54 H54            2.0183     1.6656     0.1159 H       
  55 H55            1.4568    -9.6767     0.4702 H       
  56 H56            0.8068    -9.8910     2.1203 H       
  57 H57            0.8993   -11.9317     0.2485 H       
  58 H58           -0.3265   -11.8548     1.5529 H       
  59 H59           -0.5846   -10.9125    -1.3559 H       
  60 H60           -1.7144   -11.9398    -0.4131 H       
  61 H61           -2.4312   -10.0908     0.9529 H       
  62 H62           -2.2352    -9.3046    -0.6450 H       
  63 H63           -0.5720   -10.0987     5.7243 H       
  64 H64           -1.4367   -11.4047     7.6210 H       
  65 H65           -5.2793    -9.6199     7.1209 H       
  66 H66           -3.8962    -9.4114    10.1458 H       
  67 H67           -4.4258   -10.3834    12.4281 H       
  68 H68           -4.4304   -12.0798    11.7044 H       
  69 H69           -2.0172   -11.7789    10.9834 H       
  70 H70           -2.0125   -10.0825    11.7071 H       
  71 H71            0.1273     3.7544     1.2912 H       
  72 H72            0.8744     5.0086    -0.6471 H       
  73 H73           -1.1841     3.7303    -0.7757 H       
  74 H74            0.7068     1.6415    -1.9510 H       
  75 H75           -1.0660     1.5105    -1.8534 H       
  76 H76            3.1420     3.7708     0.8113 H       
  77 H77            2.1807     5.1386     1.4224 H       
  78 H78            2.3448     3.6594     2.3988 H       
  79 H79            0.5333     3.7211    -3.2994 H       
  80 H80           -1.2415     3.5948    -3.2511 H       
  81 H81           -0.4407     5.0904    -2.7123 H       
@<TRIPOS>BOND
   1    1    2 1
   2    1   23 1
   3    1   41 1
   4    2    3 ar
   5    2    7 ar
   6    3    4 ar
   7    3   45 1
   8    4    5 ar
   9    4   46 1
  10    5    6 ar
  11    5    8 1
  12    6    7 ar
  13    6   47 1
  14    7   42 1
  15    8    9 1
  16    8   48 1
  17    9   10 ar
  18    9   14 ar
  19   10   11 ar
  20   11   12 ar
  21   11   15 1
  22   12   13 ar
  23   12   18 1
  24   13   14 ar
  25   13   49 1
  26   15   16 am
  27   15   19 1
  28   16   17 1
  29   16   20 2
  30   17   18 2
  31   17   21 1
  32   18   50 1
  33   19   24 1
  34   19   27 1
  35   19   51 1
  36   21   22 ar
  37   21   28 ar
  38   22   31 ar
  39   22   52 1
  40   23   38 1
  41   23   53 1
  42   23   54 1
  43   24   25 1
  44   24   55 1
  45   24   56 1
  46   25   26 1
  47   25   57 1
  48   25   58 1
  49   26   27 1
  50   26   59 1
  51   26   60 1
  52   27   61 1
  53   27   62 1
  54   28   29 ar
  55   28   63 1
  56   29   30 ar
  57   29   64 1
  58   30   31 ar
  59   30   32 1
  60   31   65 1
  61   32   33 1
  62   32   34 2
  63   32   35 2
  64   33   36 1
  65   33   37 1
  66   33   66 1
  67   36   37 1
  68   36   67 1
  69   36   68 1
  70   37   69 1
  71   37   70 1
  72   38   39 1
  73   38   43 1
  74   38   71 1
  75   39   40 1
  76   39   72 1
  77   40   41 1
  78   40   44 1
  79   40   73 1
  80   41   74 1
  81   41   75 1
  82   43   76 1
  83   43   77 1
  84   43   78 1
  85   44   79 1
  86   44   80 1
  87   44   81 1

#	End of record

