#	Name: ASD08151007
#	Creating user name:	WinNT
#	Creation time:	15. 06. 2019 21:16

#	Modifying user name:	WinNT
#	Modification time:	15. 06. 2019 21:16

#	Program:	/corina/corina34_cracker 3.40 0067  02.08.2006

@<TRIPOS>MOLECULE
ASD08151007
  35   36    0    0    0
SMALL
NO_CHARGES


@<TRIPOS>ATOM
   1 C1            -0.0191     1.9583     0.7510 C.3     
   2 S2            -0.0670     0.1650     0.4817 S.o2    
   3 O3            -1.2921    -0.3777     0.9548 O.2     
   4 O4             0.4269    -0.1585    -0.8108 O.2     
   5 O5             0.9822    -0.3903     1.4342 O.3     
   6 F6             1.3002     2.4110     0.6428 F       
   7 F7            -0.8111     2.5955    -0.2101 F       
   8 F8            -0.5094     2.2513     2.0281 F       
   9 N9             1.4792     1.7933     3.0839 N.ar    
  10 C10            1.7225     2.8327     3.8442 C.ar    
  11 C11            1.3433     2.8635     5.1849 C.ar    
  12 C12            0.7006     1.7915     5.7357 C.ar    
  13 C13            0.4411     0.6775     4.9149 C.ar    
  14 C14           -0.2166    -0.4591     5.4194 C.ar    
  15 C15           -0.4569    -1.5227     4.6119 C.ar    
  16 C16           -0.0565    -1.5087     3.2636 C.ar    
  17 C17            0.5971    -0.4004     2.7332 C.ar    
  18 C18            0.8544     0.7135     3.5614 C.ar    
  19 C19           -0.3286    -2.6775     2.4069 C.2     
  20 O20            0.4787    -3.0129     1.5616 O.2     
  21 N21           -1.4720    -3.3742     2.5608 N.am    
  22 C22           -1.7934    -4.4672     1.6397 C.3     
  23 O23           -2.3628    -3.0497     3.6126 O.3     
  24 C24           -3.4218    -2.1710     3.2272 C.3     
  25 H25            2.2301     3.6869     3.4211 H       
  26 H26            1.5577     3.7336     5.7876 H       
  27 H27            0.3998     1.7982     6.7730 H       
  28 H28           -0.5307    -0.4854     6.4524 H       
  29 H29           -0.9625    -2.3904     5.0091 H       
  30 H30           -1.3864    -5.4009     2.0279 H       
  31 H31           -2.8756    -4.5548     1.5434 H       
  32 H32           -1.3573    -4.2591     0.6627 H       
  33 H33           -4.0119    -2.6375     2.4383 H       
  34 H34           -4.0596    -1.9712     4.0882 H       
  35 H35           -3.0016    -1.2343     2.8610 H       
@<TRIPOS>BOND
   1    1    2 1
   2    1    6 1
   3    1    7 1
   4    1    8 1
   5    2    3 2
   6    2    4 2
   7    2    5 1
   8    5   17 1
   9    9   10 ar
  10    9   18 ar
  11   10   11 ar
  12   10   25 1
  13   11   12 ar
  14   11   26 1
  15   12   13 ar
  16   12   27 1
  17   13   14 ar
  18   13   18 ar
  19   14   15 ar
  20   14   28 1
  21   15   16 ar
  22   15   29 1
  23   16   17 ar
  24   16   19 1
  25   17   18 ar
  26   19   20 2
  27   19   21 am
  28   21   22 1
  29   21   23 1
  30   22   30 1
  31   22   31 1
  32   22   32 1
  33   23   24 1
  34   24   33 1
  35   24   34 1
  36   24   35 1

#	End of record

