#	Name: ASD04880393
#	Creating user name:	WinNT
#	Creation time:	15. 06. 2019 20:53

#	Modifying user name:	WinNT
#	Modification time:	15. 06. 2019 20:53

#	Program:	/corina/corina34_cracker 3.40 0067  02.08.2006

@<TRIPOS>MOLECULE
ASD04880393
  38   40    0    0    0
SMALL
NO_CHARGES


@<TRIPOS>ATOM
   1 C1            -0.0112     1.3873     0.0522 C.ar    
   2 C2             1.1766     2.0952     0.0840 C.ar    
   3 C3             2.3833     1.4268     0.0556 C.ar    
   4 C4             2.4052     0.0324    -0.0054 C.ar    
   5 C5             1.2039    -0.6781    -0.0373 C.ar    
   6 C6             0.0020     0.0027    -0.0084 C.ar    
   7 C7             3.6948    -0.6888    -0.0366 C.2     
   8 O8             3.7146    -1.9023     0.0362 O.2     
   9 N9             4.8488    -0.0013    -0.1457 N.am    
  10 C10            6.1999    -0.5795    -0.0700 C.3     
  11 N11            4.9574     1.3720    -0.3546 N.2     
  12 C12            6.1716     1.7994    -0.4249 C.2     
  13 C13            7.1259     0.6388    -0.2562 C.3     
  14 F14           -1.1621    -0.6823    -0.0387 F       
  15 C15            6.5681     3.2018    -0.6403 C.ar    
  16 C16            5.5906     4.1887    -0.7859 C.ar    
  17 C17            5.9665     5.5041    -0.9874 C.ar    
  18 C18            7.3286     5.8381    -1.0442 C.ar    
  19 C19            8.2984     4.8409    -0.8970 C.ar    
  20 C20            7.9243     3.5447    -0.6929 C.ar    
  21 O21            5.0220     6.4684    -1.1302 O.3     
  22 C22            3.6562     6.0539    -1.0616 C.3     
  23 C23            7.7250     7.1982    -1.2531 C.1     
  24 N24            8.0394     8.2772    -1.4188 N.1     
  25 H25           -0.9529     1.9154     0.0792 H       
  26 H26            1.1595     3.1740     0.1308 H       
  27 H27            3.3096     1.9816     0.0801 H       
  28 H28            1.2140    -1.7570    -0.0848 H       
  29 H29            6.3653    -1.0417     0.9032 H       
  30 H30            6.3528    -1.3033    -0.8705 H       
  31 H31            7.7510     0.7829     0.6251 H       
  32 H32            7.7417     0.5176    -1.1473 H       
  33 H33            4.5442     3.9252    -0.7415 H       
  34 H34            9.3463     5.0982    -0.9411 H       
  35 H35            8.6774     2.7790    -0.5796 H       
  36 H36            3.4564     5.3291    -1.8508 H       
  37 H37            3.4636     5.5966    -0.0910 H       
  38 H38            3.0068     6.9197    -1.1906 H       
@<TRIPOS>BOND
   1    1    2 ar
   2    1    6 ar
   3    1   25 1
   4    2    3 ar
   5    2   26 1
   6    3    4 ar
   7    3   27 1
   8    4    5 ar
   9    4    7 1
  10    5    6 ar
  11    5   28 1
  12    6   14 1
  13    7    8 2
  14    7    9 am
  15    9   10 1
  16    9   11 1
  17   10   13 1
  18   10   29 1
  19   10   30 1
  20   11   12 2
  21   12   13 1
  22   12   15 1
  23   13   31 1
  24   13   32 1
  25   15   16 ar
  26   15   20 ar
  27   16   17 ar
  28   16   33 1
  29   17   18 ar
  30   17   21 1
  31   18   19 ar
  32   18   23 1
  33   19   20 ar
  34   19   34 1
  35   20   35 1
  36   21   22 1
  37   22   36 1
  38   22   37 1
  39   22   38 1
  40   23   24 3

#	End of record

