#	Name: ASD02038563
#	Creating user name:	WinNT
#	Creation time:	15. 06. 2019 20:17

#	Modifying user name:	WinNT
#	Modification time:	15. 06. 2019 20:17

#	Program:	/corina/corina34_cracker 3.40 0067  02.08.2006

@<TRIPOS>MOLECULE
ASD02038563
  54   56    0    0    0
SMALL
NO_CHARGES


@<TRIPOS>ATOM
   1 C1            -0.4797     1.3214     0.1792 C.3     
   2 N2            -0.2433    -0.1283     0.2269 N.3     
   3 C3             0.1490    -0.6414    -1.0925 C.3     
   4 C4             0.7652    -0.4614     1.2426 C.3     
   5 C5             0.2831     0.0196     2.6133 C.3     
   6 N6             0.0467     1.4692     2.5656 N.3     
   7 C7            -0.3264     1.9573     3.8207 C.ar    
   8 C8            -0.5961     3.3094     3.9893 C.ar    
   9 C9            -0.9646     3.7891     5.2309 C.ar    
  10 C10           -1.0652     2.9241     6.3063 C.ar    
  11 C11           -0.7967     1.5766     6.1413 C.ar    
  12 C12           -0.4338     1.0904     4.9006 C.ar    
  13 C13           -0.9618     1.8023     1.5499 C.3     
  14 Cl14          -1.5287     3.5305     7.8656 Cl      
  15 C15           -1.0397    -0.5453    -2.0510 C.3     
  16 C16           -0.6248    -1.0595    -3.4310 C.3     
  17 O17           -1.6970    -0.8622    -4.3549 O.3     
  18 C18           -1.4903    -1.2681    -5.6362 C.ar    
  19 C19           -2.4894    -1.1063    -6.5846 C.ar    
  20 C20           -2.2795    -1.5186    -7.8861 C.ar    
  21 C21           -1.0695    -2.0939    -8.2448 C.ar    
  22 C22           -0.0701    -2.2548    -7.2966 C.ar    
  23 C23           -0.2784    -1.8386    -5.9961 C.ar    
  24 O24           -0.8632    -2.5006    -9.5258 O.3     
  25 O25           -2.1192    -1.3376    -1.5522 O.3     
  26 C26            0.8216     2.0390    -0.1849 C.3     
  27 C27            0.9733    -1.9768     1.2776 C.3     
  28 H28           -1.2387     1.5415    -0.5714 H       
  29 H29            0.9777    -0.0495    -1.4809 H       
  30 H30            0.4580    -1.6826    -1.0002 H       
  31 H31            1.7064     0.0297     0.9953 H       
  32 H32           -0.6439    -0.4917     2.8727 H       
  33 H33            1.0424    -0.2006     3.3637 H       
  34 H34           -0.5174     3.9850     3.1504 H       
  35 H35           -1.1741     4.8403     5.3627 H       
  36 H36           -0.8753     0.9039     6.9825 H       
  37 H37           -0.2246     0.0387     4.7722 H       
  38 H38           -1.1100     2.8819     1.5250 H       
  39 H39           -1.9030     1.3113     1.7972 H       
  40 H40           -1.3586     0.4939    -2.1313 H       
  41 H41            0.2545    -0.5136    -3.7729 H       
  42 H42           -0.3908    -2.1222    -3.3675 H       
  43 H43           -3.4316    -0.6583    -6.3054 H       
  44 H44           -3.0577    -1.3932    -8.6244 H       
  45 H45            0.8721    -2.7028    -7.5759 H       
  46 H46            0.4998    -1.9639    -5.2578 H       
  47 H47           -0.4838    -1.8199   -10.0983 H       
  48 H48           -1.8865    -2.2622    -1.3905 H       
  49 H49            1.1657     1.6949    -1.1602 H       
  50 H50            0.6459     3.1142    -0.2202 H       
  51 H51            1.5802     1.8193     0.5664 H       
  52 H52            1.4289    -2.3026     0.3425 H       
  53 H53            1.6282    -2.2345     2.1099 H       
  54 H54            0.0112    -2.4728     1.4052 H       
@<TRIPOS>BOND
   1    1    2 1
   2    1   26 1
   3    1   13 1
   4    1   28 1
   5    2    3 1
   6    2    4 1
   7    3   15 1
   8    3   29 1
   9    3   30 1
  10    4    5 1
  11    4   27 1
  12    4   31 1
  13    5    6 1
  14    5   32 1
  15    5   33 1
  16    6    7 1
  17    6   13 1
  18    7    8 ar
  19    7   12 ar
  20    8    9 ar
  21    8   34 1
  22    9   10 ar
  23    9   35 1
  24   10   11 ar
  25   10   14 1
  26   11   12 ar
  27   11   36 1
  28   12   37 1
  29   13   38 1
  30   13   39 1
  31   15   16 1
  32   15   25 1
  33   15   40 1
  34   16   17 1
  35   16   41 1
  36   16   42 1
  37   17   18 1
  38   18   19 ar
  39   18   23 ar
  40   19   20 ar
  41   19   43 1
  42   20   21 ar
  43   20   44 1
  44   21   22 ar
  45   21   24 1
  46   22   23 ar
  47   22   45 1
  48   23   46 1
  49   24   47 1
  50   25   48 1
  51   26   49 1
  52   26   50 1
  53   26   51 1
  54   27   52 1
  55   27   53 1
  56   27   54 1

#	End of record

