#	Name: ASD01901218
#	Creating user name:	WinNT
#	Creation time:	15. 06. 2019 19:53

#	Modifying user name:	WinNT
#	Modification time:	15. 06. 2019 19:53

#	Program:	/corina/corina34_cracker 3.40 0067  02.08.2006

@<TRIPOS>MOLECULE
ASD01901218
  26   28    0    0    0
SMALL
NO_CHARGES


@<TRIPOS>ATOM
   1 C1            -0.0173     1.4278     0.0099 C.2     
   2 C2             0.0021    -0.0041     0.0020 C.1     
   3 C3             0.0180    -1.1779    -0.0044 C.1     
   4 C4             0.0374    -2.6098    -0.0123 C.ar    
   5 C5            -1.2027    -3.3912    -0.0047 C.ar    
   6 C6            -1.1094    -4.8038    -0.0137 C.ar    
   7 N7             0.0916    -5.3920    -0.0283 N.ar    
   8 C8             1.2105    -4.7080    -0.0349 C.ar    
   9 C9             1.2394    -3.3223    -0.0335 C.ar    
  10 C10           -2.4572    -2.7758     0.0116 C.ar    
  11 C11           -3.5844    -3.5448     0.0186 C.ar    
  12 C12           -3.4989    -4.9339     0.0097 C.ar    
  13 C13           -2.2913    -5.5638    -0.0066 C.ar    
  14 S14            1.4033     2.4649     0.0019 S.3     
  15 C15            0.3937     3.9042     0.0193 C.2     
  16 C16           -0.8989     3.5568     0.0298 C.2     
  17 C17           -1.1422     2.2030     0.0189 C.2     
  18 H18            2.1468    -5.2461    -0.0463 H       
  19 H19            2.1833    -2.7975    -0.0441 H       
  20 H20           -2.5340    -1.6986     0.0190 H       
  21 H21           -4.5543    -3.0699     0.0315 H       
  22 H22           -4.4048    -5.5220     0.0158 H       
  23 H23           -2.2423    -6.6426    -0.0129 H       
  24 H24            0.7623     4.9194     0.0218 H       
  25 H25           -1.6942     4.2874     0.0416 H       
  26 H26           -2.1391     1.7876     0.0204 H       
@<TRIPOS>BOND
   1    1    2 1
   2    1   14 1
   3    1   17 2
   4    2    3 3
   5    3    4 1
   6    4    5 ar
   7    4    9 ar
   8    5    6 ar
   9    5   10 ar
  10    6    7 ar
  11    6   13 ar
  12    7    8 ar
  13    8    9 ar
  14    8   18 1
  15    9   19 1
  16   10   11 ar
  17   10   20 1
  18   11   12 ar
  19   11   21 1
  20   12   13 ar
  21   12   22 1
  22   13   23 1
  23   14   15 1
  24   15   16 2
  25   15   24 1
  26   16   17 1
  27   16   25 1
  28   17   26 1

#	End of record

