#	Name: ASD05730095
#	Creating user name:	WinNT
#	Creation time:	15. 06. 2019 21:02

#	Modifying user name:	WinNT
#	Modification time:	15. 06. 2019 21:02

#	Program:	/corina/corina34_cracker 3.40 0067  02.08.2006

@<TRIPOS>MOLECULE
ASD05730095
  67   71    0    0    0
SMALL
NO_CHARGES


@<TRIPOS>ATOM
   1 N1             0.9051     1.2530     0.4028 N.3     
   2 C2             0.6619    -0.1213     0.3010 C.ar    
   3 C3             1.5689    -0.9399    -0.3589 C.ar    
   4 C4             1.3291    -2.2961    -0.4590 C.ar    
   5 C5             0.1808    -2.8412     0.0998 C.ar    
   6 C6            -0.7264    -2.0225     0.7598 C.ar    
   7 C7            -0.4840    -0.6676     0.8649 C.ar    
   8 N8            -0.0628    -4.2168    -0.0026 N.pl3   
   9 C9             0.3062    -4.9004    -1.1446 C.ar    
  10 N10            0.1715    -6.2176    -1.1711 N.ar    
  11 C11            0.5152    -6.9094    -2.2515 C.ar    
  12 C12            1.0259    -6.2131    -3.3685 C.ar    
  13 C13            1.1493    -4.8177    -3.2905 C.ar    
  14 N14            0.7783    -4.2119    -2.1782 N.ar    
  15 N15            0.3799    -8.2743    -2.2874 N.am    
  16 C16            0.7314    -8.9710    -3.3852 C.2     
  17 C17            1.2643    -8.2795    -4.5609 C.2     
  18 C18            1.4012    -6.9174    -4.5351 C.2     
  19 C19           -0.1517    -8.9812    -1.1195 C.3     
  20 C20           -1.6742    -9.0810    -1.2332 C.3     
  21 O21            0.6056   -10.1825    -3.4001 O.2     
  22 C22            1.6511    -9.0468    -5.7679 C.ar    
  23 C23            0.6695    -9.5528    -6.6209 C.ar    
  24 C24            2.9979    -9.2615    -6.0593 C.ar    
  25 C25            3.3521    -9.9769    -7.1847 C.ar    
  26 C26            2.3745   -10.4808    -8.0243 C.ar    
  27 C27            1.0370   -10.2673    -7.7444 C.ar    
  28 C28            0.8765     1.8923    -0.9201 C.3     
  29 C29            1.0670     3.4023    -0.7582 C.3     
  30 N30            2.3436     3.6622    -0.0782 N.3     
  31 C31            2.3721     3.0229     1.2447 C.3     
  32 C32            2.1817     1.5129     1.0828 C.3     
  33 Cl33          -1.0096    -9.2854    -6.2705 Cl      
  34 S34            2.8357   -11.3923    -9.4600 S.o2    
  35 C35            2.9195   -13.1142    -8.8955 C.3     
  36 O36            1.7457   -11.2131   -10.3539 O.2     
  37 O37            4.1329   -10.9088    -9.7803 O.2     
  38 C38           -1.4681     0.2207     1.5815 C.3     
  39 F39           -2.5822    -0.5329     1.9662 F       
  40 F40           -0.8612     0.7686     2.7166 F       
  41 F41           -1.8746     1.2510     0.7268 F       
  42 H42            2.4617    -0.5158    -0.7942 H       
  43 H43            2.0346    -2.9328    -0.9722 H       
  44 H44           -1.6196    -2.4466     1.1944 H       
  45 H45           -0.4907    -4.6893     0.7286 H       
  46 H46            1.5358    -4.2508    -4.1246 H       
  47 H47            1.7924    -6.3894    -5.3922 H       
  48 H48            0.2758    -9.9828    -1.0753 H       
  49 H49            0.1099    -8.4342    -0.2136 H       
  50 H50           -2.0697    -9.6069    -0.3643 H       
  51 H51           -2.1017    -8.0793    -1.2774 H       
  52 H52           -1.9358    -9.6279    -2.1391 H       
  53 H53            3.7623    -8.8683    -5.4055 H       
  54 H54            4.3949   -10.1435    -7.4110 H       
  55 H55            0.2785   -10.6635    -8.4032 H       
  56 H56            1.6796     1.4885    -1.5365 H       
  57 H57           -0.0832     1.6961    -1.3982 H       
  58 H58            1.0752     3.8752    -1.7402 H       
  59 H59            0.2491     3.8104    -0.1644 H       
  60 H60            3.1226     3.3590    -0.6433 H       
  61 H61            3.3318     3.2192     1.7228 H       
  62 H62            1.5690     3.4267     1.8612 H       
  63 H63            2.1735     1.0401     2.0648 H       
  64 H64            2.9996     1.1048     0.4891 H       
  65 H65            1.9448   -13.4197    -8.5152 H       
  66 H66            3.2018   -13.7566    -9.7295 H       
  67 H67            3.6623   -13.2008    -8.1025 H       
@<TRIPOS>BOND
   1    1    2 1
   2    1   28 1
   3    1   32 1
   4    2    3 ar
   5    2    7 ar
   6    3    4 ar
   7    3   42 1
   8    4    5 ar
   9    4   43 1
  10    5    6 ar
  11    5    8 1
  12    6    7 ar
  13    6   44 1
  14    7   38 1
  15    8    9 1
  16    8   45 1
  17    9   10 ar
  18    9   14 ar
  19   10   11 ar
  20   11   12 ar
  21   11   15 1
  22   12   13 ar
  23   12   18 1
  24   13   14 ar
  25   13   46 1
  26   15   16 am
  27   15   19 1
  28   16   17 1
  29   16   21 2
  30   17   18 2
  31   17   22 1
  32   18   47 1
  33   19   20 1
  34   19   48 1
  35   19   49 1
  36   20   50 1
  37   20   51 1
  38   20   52 1
  39   22   24 ar
  40   22   23 ar
  41   23   33 1
  42   23   27 ar
  43   24   25 ar
  44   24   53 1
  45   25   26 ar
  46   25   54 1
  47   26   27 ar
  48   26   34 1
  49   27   55 1
  50   28   29 1
  51   28   56 1
  52   28   57 1
  53   29   30 1
  54   29   58 1
  55   29   59 1
  56   30   31 1
  57   30   60 1
  58   31   32 1
  59   31   61 1
  60   31   62 1
  61   32   63 1
  62   32   64 1
  63   34   35 1
  64   34   36 2
  65   34   37 2
  66   35   65 1
  67   35   66 1
  68   35   67 1
  69   38   39 1
  70   38   40 1
  71   38   41 1

#	End of record

