#	Name: ASD00840242
#	Creating user name:	WinNT
#	Creation time:	15. 06. 2019 18:38

#	Modifying user name:	WinNT
#	Modification time:	15. 06. 2019 18:38

#	Program:	/corina/corina34_cracker 3.40 0067  02.08.2006

@<TRIPOS>MOLECULE
ASD00840242
  90   95    0    0    0
SMALL
NO_CHARGES


@<TRIPOS>ATOM
   1 N1            -0.0050     1.3211     0.0356 N.ar    
   2 C2             0.0089    -0.0012     0.0186 C.ar    
   3 C3             1.2117    -0.6961    -0.0014 C.ar    
   4 C4             2.3994     0.0138    -0.0034 C.ar    
   5 C5             2.3418     1.4008     0.0148 C.ar    
   6 C6             1.1109     2.0254     0.0342 C.ar    
   7 C7             1.2227    -2.2030    -0.0203 C.3     
   8 C8             0.4753    -2.7240    -1.2293 C.2     
   9 N9             2.5989    -2.7053    -0.0115 N.am    
  10 C10            3.4472    -2.3639    -1.0016 C.2     
  11 N11            4.7405    -2.7378    -0.9396 N.am    
  12 O12            3.0456    -1.7188    -1.9507 O.2     
  13 C13            5.2673    -3.4167     0.2522 C.3     
  14 C14            6.4979    -2.6530     0.7512 C.3     
  15 C15            7.5066    -2.5163    -0.3916 C.3     
  16 C16            6.8768    -1.7215    -1.5378 C.3     
  17 C17            5.6491    -2.4797    -2.0650 C.3     
  18 C18            8.7519    -1.7842     0.1124 C.3     
  19 C19            9.3841    -2.5791     1.2582 C.3     
  20 C20           10.6624    -1.8739     1.7174 C.3     
  21 N21           11.5996    -1.7744     0.5913 N.3     
  22 C22           11.0326    -0.9753    -0.5024 C.3     
  23 C23            9.7654    -1.6537    -1.0279 C.3     
  24 C24           12.8912    -1.2276     1.0281 C.3     
  25 O25            0.7566    -2.5223    -2.3916 O.2     
  26 N26           -0.5573    -3.4523    -0.7734 N.am    
  27 C27            0.4470    -2.7533     1.1549 C.ar    
  28 C28           -0.6049    -3.4913     0.6173 C.ar    
  29 C29            0.6116    -2.6424     2.5123 C.ar    
  30 C30           -0.2873    -3.2777     3.3767 C.ar    
  31 C31           -1.3470    -4.0212     2.8434 C.ar    
  32 C32           -1.5008    -4.1261     1.4776 C.ar    
  33 F33           -2.2201    -4.6382     3.6693 F       
  34 C34           -1.0266    -5.8345    -2.0693 C.ar    
  35 C35           -1.3606    -6.8796    -1.2283 C.ar    
  36 C36           -0.2080    -6.0596    -3.1601 C.ar    
  37 C37            0.2767    -7.3299    -3.4101 C.ar    
  38 C38           -0.0569    -8.3749    -2.5689 C.ar    
  39 C39           -0.8756    -8.1498    -1.4781 C.ar    
  40 H40            0.3217    -9.3673    -2.7643 H       
  41 H41           -2.0002    -6.7037    -0.3760 H       
  42 C42           13.8781    -1.2552    -0.1407 C.3     
  43 C43           12.7006     0.2150     1.5008 C.3     
  44 C44           -0.1241    -3.1685     4.7952 C.1     
  45 N45            0.0054    -3.0819     5.9204 N.1     
  46 O46           -1.1625    -0.6856     0.0212 O.3     
  47 C47           -3.5735    -0.8518     0.0424 C.3     
  48 C48           -2.3649     0.0864     0.0427 C.3     
  49 S49           -1.6503    -4.2169    -1.7548 S.o2    
  50 O50           -2.8323    -4.3853    -0.9842 O.2     
  51 O51           -1.6243    -3.5282    -2.9974 O.2     
  52 H52            3.3496    -0.4994    -0.0184 H       
  53 H53            3.2503     1.9848     0.0142 H       
  54 H54            1.0606     3.1042     0.0481 H       
  55 H55            2.8995    -3.2835     0.7070 H       
  56 H56            4.5052    -3.4309     1.0314 H       
  57 H57            5.5499    -4.4378    -0.0039 H       
  58 H58            6.1977    -1.6621     1.0919 H       
  59 H59            6.9550    -3.1989     1.5765 H       
  60 H60            7.7876    -3.5072    -0.7483 H       
  61 H61            6.5730    -0.7394    -1.1756 H       
  62 H62            7.6035    -1.6045    -2.3417 H       
  63 H63            5.9656    -3.4231    -2.5099 H       
  64 H64            5.1388    -1.8734    -2.8134 H       
  65 H65            8.4724    -0.7924     0.4680 H       
  66 H66            8.6825    -2.6389     2.0903 H       
  67 H67            9.6269    -3.5842     0.9133 H       
  68 H68           10.4170    -0.8739     2.0751 H       
  69 H69           11.1227    -2.4450     2.5236 H       
  70 H70           10.7854     0.0205    -0.1343 H       
  71 H71           11.7617    -0.8937    -1.3085 H       
  72 H72           10.0141    -2.6442    -1.4088 H       
  73 H73            9.3362    -1.0522    -1.8292 H       
  74 H74           13.2821    -1.8300     1.8480 H       
  75 H75            1.4328    -2.0666     2.9129 H       
  76 H76           -2.3200    -4.7011     1.0716 H       
  77 H77            0.0527    -5.2432    -3.8173 H       
  78 H78            0.9157    -7.5059    -4.2628 H       
  79 H79           -1.1365    -8.9663    -0.8211 H       
  80 H80           14.0138    -2.2830    -0.4775 H       
  81 H81           13.4871    -0.6528    -0.9607 H       
  82 H82           14.8365    -0.8495     0.1833 H       
  83 H83           11.9975     0.2346     2.3334 H       
  84 H84           13.6590     0.6207     1.8248 H       
  85 H85           12.3097     0.8174     0.6808 H       
  86 H86           -4.4906    -0.2629     0.0588 H       
  87 H87           -3.5540    -1.4691    -0.8557 H       
  88 H88           -3.5368    -1.4918     0.9240 H       
  89 H89           -2.3843     0.7037     0.9408 H       
  90 H90           -2.4015     0.7264    -0.8389 H       
@<TRIPOS>BOND
   1    1    2 ar
   2    1    6 ar
   3    2    3 ar
   4    2   46 1
   5    3    4 ar
   6    3    7 1
   7    4    5 ar
   8    4   52 1
   9    5    6 ar
  10    5   53 1
  11    6   54 1
  12    7    8 1
  13    7    9 1
  14    7   27 1
  15    8   25 2
  16    8   26 am
  17    9   10 am
  18    9   55 1
  19   10   11 am
  20   10   12 2
  21   11   13 1
  22   11   17 1
  23   13   14 1
  24   13   56 1
  25   13   57 1
  26   14   15 1
  27   14   58 1
  28   14   59 1
  29   15   16 1
  30   15   18 1
  31   15   60 1
  32   16   17 1
  33   16   61 1
  34   16   62 1
  35   17   63 1
  36   17   64 1
  37   18   19 1
  38   18   23 1
  39   18   65 1
  40   19   20 1
  41   19   66 1
  42   19   67 1
  43   20   21 1
  44   20   68 1
  45   20   69 1
  46   21   22 1
  47   21   24 1
  48   22   23 1
  49   22   70 1
  50   22   71 1
  51   23   72 1
  52   23   73 1
  53   24   42 1
  54   24   43 1
  55   24   74 1
  56   26   49 am
  57   26   28 1
  58   27   28 ar
  59   27   29 ar
  60   28   32 ar
  61   29   30 ar
  62   29   75 1
  63   30   31 ar
  64   30   44 1
  65   31   32 ar
  66   31   33 1
  67   32   76 1
  68   34   35 ar
  69   34   36 ar
  70   34   49 1
  71   35   41 1
  72   35   39 ar
  73   36   37 ar
  74   36   77 1
  75   37   38 ar
  76   37   78 1
  77   38   39 ar
  78   38   40 1
  79   39   79 1
  80   42   80 1
  81   42   81 1
  82   42   82 1
  83   43   83 1
  84   43   84 1
  85   43   85 1
  86   44   45 3
  87   46   48 1
  88   47   48 1
  89   47   86 1
  90   47   87 1
  91   47   88 1
  92   48   89 1
  93   48   90 1
  94   49   50 2
  95   49   51 2

#	End of record

