#	Name: ASD01940682
#	Creating user name:	WinNT
#	Creation time:	15. 06. 2019 20:13

#	Modifying user name:	WinNT
#	Modification time:	15. 06. 2019 20:13

#	Program:	/corina/corina34_cracker 3.40 0067  02.08.2006

@<TRIPOS>MOLECULE
ASD01940682
  43   45    0    0    0
SMALL
NO_CHARGES


@<TRIPOS>ATOM
   1 C1             0.3541     0.9603     1.1982 C.ar    
   2 C2            -0.1482     0.2320     0.1355 C.ar    
   3 C3             0.6190     0.0392    -1.0007 C.ar    
   4 C4             1.8944     0.5755    -1.0780 C.ar    
   5 C5             2.4039     1.3081    -0.0141 C.ar    
   6 C6             1.6294     1.5008     1.1287 C.ar    
   7 N7             2.1383     2.2396     2.2051 N.am    
   8 S8             1.7534     1.8124     3.7581 S.o2    
   9 C9             2.3837     0.1203     3.9315 C.3     
  10 O10            2.5045     2.7094     4.5647 O.2     
  11 O11            0.3327     1.8202     3.7819 O.2     
  12 F12            0.1235    -0.6736    -2.0359 F       
  13 F13            2.6417     0.3854    -2.1874 F       
  14 N14            3.6937     1.8516    -0.0888 N.pl3   
  15 C15            4.8020     1.0628     0.2204 C.ar    
  16 C16            6.0696     1.6339     0.2661 C.ar    
  17 C17            4.6367    -0.2919     0.4879 C.ar    
  18 C18            5.7296    -1.0735     0.7940 C.ar    
  19 C19            7.0036    -0.5042     0.8351 C.ar    
  20 C20            7.1659     0.8573     0.5707 C.ar    
  21 C21            6.2437     3.1035    -0.0184 C.3     
  22 C22            8.1772    -1.3394     1.1634 C.2     
  23 C23            2.0798    -0.6164     5.2376 C.3     
  24 C24            1.3600    -1.0166     3.9482 C.3     
  25 C25            8.0209    -2.6313     1.4196 C.2     
  26 H26           -0.2489     1.1121     2.0812 H       
  27 H27           -1.1416    -0.1878     0.1921 H       
  28 H28            2.7159     3.0013     2.0406 H       
  29 H29            3.3449    -0.0744     3.4557 H       
  30 H30            3.8157     2.7762    -0.3555 H       
  31 H31            3.6508    -0.7317     0.4560 H       
  32 H32            5.6005    -2.1253     1.0024 H       
  33 H33            8.1504     1.3003     0.6014 H       
  34 H34            6.1558     3.6664     0.9109 H       
  35 H35            7.2275     3.2750    -0.4552 H       
  36 H36            5.4739     3.4322    -0.7165 H       
  37 H37            9.1623    -0.8980     1.1949 H       
  38 H38            2.8409    -1.2961     5.6208 H       
  39 H39            1.5012    -0.0843     5.9927 H       
  40 H40            0.3078    -0.7478     3.8550 H       
  41 H41            1.6475    -1.9596     3.4832 H       
  42 H42            7.0358    -3.0727     1.3881 H       
  43 H43            8.8788    -3.2418     1.6596 H       
@<TRIPOS>BOND
   1    1    2 ar
   2    1    6 ar
   3    1   26 1
   4    2    3 ar
   5    2   27 1
   6    3    4 ar
   7    3   12 1
   8    4    5 ar
   9    4   13 1
  10    5    6 ar
  11    5   14 1
  12    6    7 1
  13    7    8 am
  14    7   28 1
  15    8    9 1
  16    8   10 2
  17    8   11 2
  18    9   23 1
  19    9   24 1
  20    9   29 1
  21   14   15 1
  22   14   30 1
  23   15   16 ar
  24   15   17 ar
  25   16   21 1
  26   16   20 ar
  27   17   18 ar
  28   17   31 1
  29   18   19 ar
  30   18   32 1
  31   19   20 ar
  32   19   22 1
  33   20   33 1
  34   21   34 1
  35   21   35 1
  36   21   36 1
  37   22   25 2
  38   22   37 1
  39   23   24 1
  40   23   38 1
  41   23   39 1
  42   24   40 1
  43   24   41 1
  44   25   42 1
  45   25   43 1

#	End of record

