#	Name: ASD03082163
#	Creating user name:	WinNT
#	Creation time:	15. 06. 2019 20:27

#	Modifying user name:	WinNT
#	Modification time:	15. 06. 2019 20:27

#	Program:	/corina/corina34_cracker 3.40 0067  02.08.2006

@<TRIPOS>MOLECULE
ASD03082163
  49   51    0    0    0
SMALL
NO_CHARGES


@<TRIPOS>ATOM
   1 C1             0.0232     1.3762    -0.4464 C.ar    
   2 C2            -1.0000     1.9081    -1.2201 C.ar    
   3 C3            -2.1695     1.1955    -1.4032 C.ar    
   4 C4            -2.3230    -0.0481    -0.8159 C.ar    
   5 C5            -1.3029    -0.5824    -0.0424 C.ar    
   6 C6            -0.1289     0.1255     0.1383 C.ar    
   7 F7            -1.4545    -1.7966     0.5301 F       
   8 N8             1.2076     2.0965    -0.2608 N.pl3   
   9 C9             2.5479     6.8144     0.0657 C.3     
  10 C10           -0.5252     6.6652    -0.3140 C.ar    
  11 C11           -1.8882     6.4857    -0.0791 C.ar    
  12 C12           -0.0543     7.9477    -0.6168 C.ar    
  13 C13           -0.9674     8.9860    -0.6700 C.ar    
  14 C14           -2.3037     8.7257    -0.4245 C.ar    
  15 N15           -2.7187     7.5061    -0.1413 N.ar    
  16 C16            3.0733     7.2373    -1.3077 C.3     
  17 O17            3.9774     6.2452    -1.7980 O.3     
  18 N18            1.7478     5.5950    -0.0719 N.pl3   
  19 C19            0.4084     5.5196    -0.2381 C.2     
  20 N20            2.2208     4.2729    -0.0634 N.2     
  21 C21            1.1763     3.4916    -0.2146 C.2     
  22 N22            0.0807     4.2456    -0.3202 N.2     
  23 F23           -3.4678    -0.7425    -0.9957 F       
  24 C24            3.8034     8.5762    -1.1843 C.3     
  25 H25            4.3504     6.4480    -2.6668 H       
  26 C26           -3.3013     9.8538    -0.4810 C.3     
  27 C27           -4.6998     9.3137    -0.1755 C.3     
  28 C28           -2.9279    10.9171     0.5539 C.3     
  29 O29           -3.2898    10.4350    -1.7864 O.3     
  30 H30           -0.8817     2.8789    -1.6784 H       
  31 H31           -2.9649     1.6096    -2.0050 H       
  32 H32            0.6658    -0.2902     0.7401 H       
  33 H33            2.0508     1.6268    -0.1642 H       
  34 H34            3.3882     6.6242     0.7333 H       
  35 H35            1.9287     7.6107     0.4787 H       
  36 H36           -2.2659     5.5015     0.1554 H       
  37 H37            0.9949     8.1226    -0.8039 H       
  38 H38           -0.6402     9.9891    -0.9005 H       
  39 H39            2.2379     7.3415    -2.0000 H       
  40 H40            4.1777     8.8775    -2.1626 H       
  41 H41            3.1138     9.3330    -0.8103 H       
  42 H42            4.6388     8.4721    -0.4919 H       
  43 H43           -4.7086     8.8704     0.8203 H       
  44 H44           -5.4213    10.1297    -0.2163 H       
  45 H45           -4.9658     8.5562    -0.9127 H       
  46 H46           -1.9316    11.3019     0.3363 H       
  47 H47           -3.6495    11.7331     0.5131 H       
  48 H48           -2.9367    10.4738     1.5497 H       
  49 H49           -2.4327    10.7987    -2.0475 H       
@<TRIPOS>BOND
   1    1    2 ar
   2    1    8 1
   3    1    6 ar
   4    2    3 ar
   5    2   30 1
   6    3    4 ar
   7    3   31 1
   8    4    5 ar
   9    4   23 1
  10    5    6 ar
  11    5    7 1
  12    6   32 1
  13    8   21 1
  14    8   33 1
  15    9   16 1
  16    9   18 1
  17    9   34 1
  18    9   35 1
  19   10   11 ar
  20   10   12 ar
  21   10   19 1
  22   11   15 ar
  23   11   36 1
  24   12   13 ar
  25   12   37 1
  26   13   14 ar
  27   13   38 1
  28   14   15 ar
  29   14   26 1
  30   16   17 1
  31   16   24 1
  32   16   39 1
  33   17   25 1
  34   18   20 1
  35   18   19 1
  36   19   22 2
  37   20   21 2
  38   21   22 1
  39   24   40 1
  40   24   41 1
  41   24   42 1
  42   26   27 1
  43   26   28 1
  44   26   29 1
  45   27   43 1
  46   27   44 1
  47   27   45 1
  48   28   46 1
  49   28   47 1
  50   28   48 1
  51   29   49 1

#	End of record

