#	Name: ASD03731128
#	Creating user name:	WinNT
#	Creation time:	15. 06. 2019 20:45

#	Modifying user name:	WinNT
#	Modification time:	15. 06. 2019 20:45

#	Program:	/corina/corina34_cracker 3.40 0067  02.08.2006

@<TRIPOS>MOLECULE
ASD03731128
  47   52    0    0    0
SMALL
NO_CHARGES


@<TRIPOS>ATOM
   1 O1            -0.0164     1.3590     0.0095 O.3     
   2 C2             0.0021    -0.0041     0.0020 C.ar    
   3 C3             1.2391    -0.4919    -0.4102 C.ar    
   4 C4             2.1048     0.7109    -0.6765 C.3     
   5 C5             1.3361     1.8545    -0.0007 C.3     
   6 O6             0.4701    -4.1150    -0.2055 O.3     
   7 C7             0.4609    -2.7533    -0.1793 C.ar    
   8 C8            -0.7677    -2.2655     0.2458 C.ar    
   9 C9            -1.6437    -3.4681     0.5416 C.3     
  10 C10           -0.6043    -4.6118     0.6105 C.3     
  11 C11            1.4666    -1.8460    -0.5024 C.ar    
  12 C12           -0.9994    -0.9120     0.3337 C.ar    
  13 N13            4.3422     0.6977    -1.1434 N.am    
  14 C14            3.4869     0.5548    -0.1112 C.2     
  15 C15            2.3004     0.9569    -2.1432 C.ar    
  16 C16            1.4378     1.1753    -3.1942 C.ar    
  17 C17            1.9360     1.3746    -4.4694 C.ar    
  18 C18            3.3019     1.3542    -4.6855 C.ar    
  19 C19            4.1699     1.1361    -3.6360 C.ar    
  20 C20            3.6773     0.9344    -2.3490 C.ar    
  21 O21            3.7771     0.3422     1.0471 O.2     
  22 C22            5.7993     0.6153    -1.0156 C.3     
  23 O23            6.3667    -1.7366    -0.2483 O.3     
  24 C24            6.2410    -0.8118    -1.2140 C.2     
  25 C25            6.5758    -1.3756    -2.3886 C.2     
  26 C26            6.9234    -2.7182    -2.1141 C.2     
  27 C27            6.7803    -2.8947    -0.7883 C.2     
  28 C28            7.0399    -4.1747    -0.0365 C.3     
  29 F29            8.3749    -4.2080     0.3804 F       
  30 F30            6.2007    -4.2375     1.0811 F       
  31 F31            6.7851    -5.2667    -0.8730 F       
  32 H32            1.4085     2.7697    -0.5883 H       
  33 H33            1.6968     2.0160     1.0151 H       
  34 H34           -2.1574    -3.3506     1.4957 H       
  35 H35           -2.3571    -3.6382    -0.2648 H       
  36 H36           -1.0136    -5.5313     0.1921 H       
  37 H37           -0.2697    -4.7683     1.6360 H       
  38 H38            2.4310    -2.2072    -0.8278 H       
  39 H39           -1.9633    -0.5522     0.6621 H       
  40 H40            0.3716     1.1905    -3.0230 H       
  41 H41            1.2600     1.5454    -5.2941 H       
  42 H42            3.6908     1.5094    -5.6811 H       
  43 H43            5.2352     1.1217    -3.8129 H       
  44 H44            6.2666     1.2485    -1.7697 H       
  45 H45            6.0966     0.9529    -0.0227 H       
  46 H46            6.5780    -0.8949    -3.3557 H       
  47 H47            7.2423    -3.4600    -2.8314 H       
@<TRIPOS>BOND
   1    1    2 1
   2    1    5 1
   3    2    3 ar
   4    2   12 ar
   5    3    4 1
   6    3   11 ar
   7    4    5 1
   8    4   14 1
   9    4   15 1
  10    5   32 1
  11    5   33 1
  12    6    7 1
  13    6   10 1
  14    7    8 ar
  15    7   11 ar
  16    8    9 1
  17    8   12 ar
  18    9   10 1
  19    9   34 1
  20    9   35 1
  21   10   36 1
  22   10   37 1
  23   11   38 1
  24   12   39 1
  25   13   14 am
  26   13   20 1
  27   13   22 1
  28   14   21 2
  29   15   16 ar
  30   15   20 ar
  31   16   17 ar
  32   16   40 1
  33   17   18 ar
  34   17   41 1
  35   18   19 ar
  36   18   42 1
  37   19   20 ar
  38   19   43 1
  39   22   24 1
  40   22   44 1
  41   22   45 1
  42   23   24 1
  43   23   27 1
  44   24   25 2
  45   25   26 1
  46   25   46 1
  47   26   27 2
  48   26   47 1
  49   27   28 1
  50   28   29 1
  51   28   30 1
  52   28   31 1

#	End of record

