#	Name: ASD01918131
#	Creating user name:	WinNT
#	Creation time:	15. 06. 2019 20:10

#	Modifying user name:	WinNT
#	Modification time:	15. 06. 2019 20:10

#	Program:	/corina/corina34_cracker 3.40 0067  02.08.2006

@<TRIPOS>MOLECULE
ASD01918131
  38   41    0    0    0
SMALL
NO_CHARGES


@<TRIPOS>ATOM
   1 N1             4.8403    -0.3875    -2.1362 N.ar    
   2 C2             5.3039     0.3033    -3.1566 C.ar    
   3 C3             5.1819     1.6940    -3.1900 C.ar    
   4 C4             4.5573     2.3446    -2.1200 C.ar    
   5 C5             4.0844     1.5720    -1.0670 C.ar    
   6 C6             4.2466     0.1938    -1.1119 C.ar    
   7 O7             3.4712     2.1581    -0.0052 O.3     
   8 C8             3.4400     3.5171     0.0440 C.2     
   9 N9             2.1721     5.5203    -0.0223 N.pl3   
  10 C10            2.2524     4.1610    -0.0659 C.2     
  11 C11            4.6362     4.2286     0.2134 C.2     
  12 C12            4.6010     5.6162     0.2633 C.2     
  13 C13            3.3035     6.2822     0.1355 C.2     
  14 C14            5.8364     6.3970     0.4405 C.2     
  15 N15            5.7822     7.7428     0.4865 N.am    
  16 O16            6.9060     5.8274     0.5454 O.2     
  17 C17            1.1401     6.4049    -0.1057 C.2     
  18 N18            1.6450     7.6071    -0.0100 N.2     
  19 N19            2.9219     7.5439     0.1391 N.2     
  20 C20            5.6882     2.4423    -4.3011 C.1     
  21 C21            6.9339     8.4774     0.7593 C.ar    
  22 N22            6.0898     3.0359    -5.1824 N.1     
  23 N23            8.0983     7.8562     0.8653 N.ar    
  24 C24            6.8511     9.8567     0.9123 C.ar    
  25 C25            8.0030    10.5743     1.1832 C.ar    
  26 C26            9.2026     9.8846     1.2921 C.ar    
  27 C27            9.2124     8.5139     1.1227 C.ar    
  28 H28            5.7839    -0.2109    -3.9762 H       
  29 H29            4.4463     3.4188    -2.1129 H       
  30 H30            3.8810    -0.4115    -0.2956 H       
  31 H31            1.3487     3.5831    -0.1915 H       
  32 H32            5.5753     3.7030     0.3045 H       
  33 H33            4.9412     8.2000     0.3295 H       
  34 H34            0.0964     6.1587    -0.2343 H       
  35 H35            5.9007    10.3614     0.8207 H       
  36 H36            7.9694    11.6467     1.3067 H       
  37 H37           10.1197    10.4149     1.5024 H       
  38 H38           10.1442     7.9736     1.2021 H       
@<TRIPOS>BOND
   1    1    2 ar
   2    1    6 ar
   3    2    3 ar
   4    2   28 1
   5    3    4 ar
   6    3   20 1
   7    4    5 ar
   8    4   29 1
   9    5    6 ar
  10    5    7 1
  11    6   30 1
  12    7    8 1
  13    8   11 1
  14    8   10 2
  15    9   10 1
  16    9   17 1
  17    9   13 1
  18   10   31 1
  19   11   12 2
  20   11   32 1
  21   12   13 1
  22   12   14 1
  23   13   19 2
  24   14   15 am
  25   14   16 2
  26   15   21 1
  27   15   33 1
  28   17   18 2
  29   17   34 1
  30   18   19 1
  31   20   22 3
  32   21   24 ar
  33   21   23 ar
  34   23   27 ar
  35   24   25 ar
  36   24   35 1
  37   25   26 ar
  38   25   36 1
  39   26   27 ar
  40   26   37 1
  41   27   38 1

#	End of record

