#	Name: ASD07301382
#	Creating user name:	WinNT
#	Creation time:	15. 06. 2019 21:11

#	Modifying user name:	WinNT
#	Modification time:	15. 06. 2019 21:11

#	Program:	/corina/corina34_cracker 3.40 0067  02.08.2006

@<TRIPOS>MOLECULE
ASD07301382
  36   36    0    0    0
SMALL
NO_CHARGES


@<TRIPOS>ATOM
   1 C1            -0.0342     1.4628    -0.1358 C.2     
   2 C2            -0.0011    -0.0025    -0.0193 C.2     
   3 C3             1.2782    -0.7090    -0.0452 C.2     
   4 C4             1.3121    -2.2109     0.0742 C.3     
   5 O5             1.0028     2.0971    -0.1228 O.2     
   6 O6            -1.2141     2.1024    -0.2627 O.3     
   7 O7             2.3133    -0.0860    -0.1630 O.2     
   8 O8             2.6670    -2.6623     0.0227 O.3     
   9 C9             2.8116    -4.0801     0.1282 C.3     
  10 N10           -1.1283    -0.6810     0.1090 N.2     
  11 N11           -2.2373    -0.0558     0.3171 N.pl3   
  12 C12           -3.4432    -0.7581     0.3260 C.ar    
  13 C13           -4.6438    -0.0843     0.5509 C.ar    
  14 C14           -5.8374    -0.7875     0.5580 C.ar    
  15 C15           -5.8370    -2.1533     0.3431 C.ar    
  16 C16           -4.6473    -2.8225     0.1205 C.ar    
  17 C17           -3.4525    -2.1291     0.1054 C.ar    
  18 O18           -4.6425     1.2582     0.7629 O.3     
  19 C19           -5.9091     1.8810     0.9862 C.3     
  20 F20           -6.7318     1.6770    -0.1269 F       
  21 F21           -6.5103     1.3222     2.1191 F       
  22 C22           -1.1709     3.5496    -0.3728 C.3     
  23 H23            0.8652    -2.5102     1.0223 H       
  24 H24            0.7501    -2.6536    -0.7482 H       
  25 H25            2.3958    -4.4181     1.0773 H       
  26 H26            2.2807    -4.5615    -0.6931 H       
  27 H27            3.8686    -4.3420     0.0807 H       
  28 H28           -2.2330     0.9024     0.4674 H       
  29 H29           -6.7685    -0.2687     0.7318 H       
  30 H30           -6.7687    -2.6994     0.3495 H       
  31 H31           -4.6528    -3.8895    -0.0464 H       
  32 H32           -2.5256    -2.6538    -0.0734 H       
  33 H33           -5.7660     2.9504     1.1410 H       
  34 H34           -2.1852     3.9370    -0.4692 H       
  35 H35           -0.7053     3.9681     0.5194 H       
  36 H36           -0.5899     3.8299    -1.2514 H       
@<TRIPOS>BOND
   1    1    2 1
   2    1    5 2
   3    1    6 1
   4    2    3 1
   5    2   10 2
   6    3    4 1
   7    3    7 2
   8    4    8 1
   9    4   23 1
  10    4   24 1
  11    6   22 1
  12    8    9 1
  13    9   25 1
  14    9   26 1
  15    9   27 1
  16   10   11 1
  17   11   12 1
  18   11   28 1
  19   12   13 ar
  20   12   17 ar
  21   13   14 ar
  22   13   18 1
  23   14   15 ar
  24   14   29 1
  25   15   16 ar
  26   15   30 1
  27   16   17 ar
  28   16   31 1
  29   17   32 1
  30   18   19 1
  31   19   20 1
  32   19   21 1
  33   19   33 1
  34   22   34 1
  35   22   35 1
  36   22   36 1

#	End of record

