#	Name: ASD03330963
#	Creating user name:	WinNT
#	Creation time:	15. 06. 2019 20:38

#	Modifying user name:	WinNT
#	Modification time:	15. 06. 2019 20:38

#	Program:	/corina/corina34_cracker 3.40 0067  02.08.2006

@<TRIPOS>MOLECULE
ASD03330963
  71   73    0    0    0
SMALL
NO_CHARGES


@<TRIPOS>ATOM
   1 N1             0.0599     1.1545    -0.7657 N.pl3   
   2 C2             0.0644    -0.1787    -0.4987 C.2     
   3 C3             1.2856    -1.0115    -0.2082 C.3     
   4 N4             2.1195    -0.3148     0.7837 N.3     
   5 C5             3.0711     0.5894     0.1351 C.3     
   6 C6             2.4735     1.1928    -1.1327 C.3     
   7 C7             1.2385     2.0256    -0.7782 C.3     
   8 C8            -1.2333     1.5192    -1.0034 C.2     
   9 N9            -1.9980     0.4609    -0.8713 N.2     
  10 C10           -1.2279    -0.6038    -0.5570 C.2     
  11 C11           -1.7015    -1.9789    -0.3202 C.2     
  12 O12           -0.9066    -2.8567    -0.0431 O.2     
  13 N13           -3.0157    -2.2640    -0.4106 N.am    
  14 C14            2.8135    -1.2731     1.6543 C.3     
  15 C15           -4.7920    -3.8441    -0.8975 C.2     
  16 C16           -3.4866    -3.6311    -0.1752 C.3     
  17 C17           -3.6926    -3.8482     1.3252 C.3     
  18 C18           -4.7888    -2.9082     1.8308 C.3     
  19 O19           -5.4267    -2.8909    -1.2967 O.2     
  20 C20           -4.1080    -5.2989     1.5783 C.3     
  21 C21           -2.3871    -3.5547     2.0670 C.3     
  22 N22           -5.2540    -5.0940    -1.0999 N.am    
  23 C23           -6.5607    -5.2988    -1.7298 C.3     
  24 C24           -6.8437    -6.7983    -1.8411 C.3     
  25 N25           -8.1539    -7.0038    -2.4727 N.3     
  26 C26           -8.3587    -8.4182    -2.8122 C.3     
  27 C27           -9.2365    -6.5066    -1.6131 C.3     
  28 C28           -1.6960     2.8802    -1.3515 C.ar    
  29 C29           -2.5964     3.0677    -2.4036 C.ar    
  30 C30           -3.0248     4.3424    -2.7229 C.ar    
  31 C31           -2.5642     5.4300    -2.0036 C.ar    
  32 C32           -1.6717     5.2503    -0.9605 C.ar    
  33 C33           -1.2400     3.9816    -0.6273 C.ar    
  34 F34           -3.0466     2.0059    -3.1072 F       
  35 Cl35          -1.0990     6.6228    -0.0649 Cl      
  36 H36            0.9804    -1.9799     0.1882 H       
  37 H37            1.8552    -1.1556    -1.1263 H       
  38 H38            3.3306     1.3917     0.8257 H       
  39 H39            3.9732     0.0346    -0.1232 H       
  40 H40            3.2145     1.8307    -1.6146 H       
  41 H41            2.1871     0.3924    -1.8149 H       
  42 H42            1.1031     2.8113    -1.5215 H       
  43 H43            1.3713     2.4731     0.2068 H       
  44 H44           -3.6497    -1.5639    -0.6316 H       
  45 H45            3.3986    -1.9610     1.0438 H       
  46 H46            3.4764    -0.7347     2.3316 H       
  47 H47            2.0805    -1.8348     2.2333 H       
  48 H48           -2.7461    -4.3395    -0.5465 H       
  49 H49           -5.7190    -3.1173     1.3024 H       
  50 H50           -4.9356    -3.0629     2.8998 H       
  51 H51           -4.4929    -1.8748     1.6505 H       
  52 H52           -3.3171    -5.9677     1.2389 H       
  53 H53           -4.2769    -5.4476     2.6448 H       
  54 H54           -5.0259    -5.5146     1.0315 H       
  55 H55           -2.0911    -2.5213     1.8867 H       
  56 H56           -2.5338    -3.7094     3.1360 H       
  57 H57           -1.6061    -4.2244     1.7069 H       
  58 H58           -4.7213    -5.8578    -0.8284 H       
  59 H59           -7.3341    -4.8271    -1.1237 H       
  60 H60           -6.5578    -4.8548    -2.7252 H       
  61 H61           -6.0702    -7.2701    -2.4471 H       
  62 H62           -6.8466    -7.2424    -0.8456 H       
  63 H63           -8.3098    -9.0204    -1.9050 H       
  64 H64           -9.3362    -8.5422    -3.2783 H       
  65 H65           -7.5821    -8.7417    -3.5053 H       
  66 H66           -9.0980    -5.4403    -1.4344 H       
  67 H67          -10.1954    -6.6711    -2.1046 H       
  68 H68           -9.2194    -7.0396    -0.6624 H       
  69 H69           -3.7204     4.4894    -3.5360 H       
  70 H70           -2.9019     6.4241    -2.2569 H       
  71 H71           -0.5476     3.8429     0.1899 H       
@<TRIPOS>BOND
   1    1    2 1
   2    1    7 1
   3    1    8 1
   4    2    3 1
   5    2   10 2
   6    3    4 1
   7    3   36 1
   8    3   37 1
   9    4    5 1
  10    4   14 1
  11    5    6 1
  12    5   38 1
  13    5   39 1
  14    6    7 1
  15    6   40 1
  16    6   41 1
  17    7   42 1
  18    7   43 1
  19    8    9 2
  20    8   28 1
  21    9   10 1
  22   10   11 1
  23   11   12 2
  24   11   13 am
  25   13   16 1
  26   13   44 1
  27   14   45 1
  28   14   46 1
  29   14   47 1
  30   15   19 2
  31   15   22 am
  32   15   16 1
  33   16   17 1
  34   16   48 1
  35   17   18 1
  36   17   20 1
  37   17   21 1
  38   18   49 1
  39   18   50 1
  40   18   51 1
  41   20   52 1
  42   20   53 1
  43   20   54 1
  44   21   55 1
  45   21   56 1
  46   21   57 1
  47   22   23 1
  48   22   58 1
  49   23   24 1
  50   23   59 1
  51   23   60 1
  52   24   25 1
  53   24   61 1
  54   24   62 1
  55   25   26 1
  56   25   27 1
  57   26   63 1
  58   26   64 1
  59   26   65 1
  60   27   66 1
  61   27   67 1
  62   27   68 1
  63   28   29 ar
  64   28   33 ar
  65   29   30 ar
  66   29   34 1
  67   30   31 ar
  68   30   69 1
  69   31   32 ar
  70   31   70 1
  71   32   33 ar
  72   32   35 1
  73   33   71 1

#	End of record

