#	Name: ASD08150481
#	Creating user name:	WinNT
#	Creation time:	15. 06. 2019 21:16

#	Modifying user name:	WinNT
#	Modification time:	15. 06. 2019 21:16

#	Program:	/corina/corina34_cracker 3.40 0067  02.08.2006

@<TRIPOS>MOLECULE
ASD08150481
  42   46    0    0    0
SMALL
NO_CHARGES


@<TRIPOS>ATOM
   1 N1            -0.3688     0.5935     1.8901 N.am    
   2 C2            -0.3302    -0.7417     1.7158 C.2     
   3 C3             0.8994    -1.4284     1.6556 C.2     
   4 C4             2.0682    -0.7483     1.7738 C.2     
   5 C5             2.0314     0.6566     1.9573 C.ar    
   6 C6             3.2143     1.4096     2.0850 C.ar    
   7 N7             3.1774     2.7055     2.2538 N.ar    
   8 C8             2.0241     3.3887     2.3149 C.ar    
   9 C9             0.7852     2.7123     2.1959 C.ar    
  10 C10            0.7905     1.3097     2.0124 C.ar    
  11 C11           -0.4112     3.4336     2.2614 C.ar    
  12 C12           -0.3710     4.8060     2.4425 C.ar    
  13 C13            0.8584     5.4684     2.5590 C.ar    
  14 C14            2.0305     4.7811     2.4978 C.ar    
  15 O15           -1.3728    -1.3647     1.6091 O.2     
  16 C16           -1.6363     5.5790     2.5131 C.2     
  17 C17           -1.6032     1.2535     1.9408 C.ar    
  18 C18           -2.2303     1.6630     0.7727 C.ar    
  19 N19           -3.3924     2.2851     0.8149 N.ar    
  20 C20           -4.0022     2.5417     1.9574 C.ar    
  21 C21           -3.4377     2.1629     3.1651 C.ar    
  22 C22           -2.2213     1.5028     3.1646 C.ar    
  23 F23           -5.1917     3.1823     1.9491 F       
  24 C24           -1.8809     6.6536     3.3178 C.2     
  25 N25           -3.1430     7.0636     3.0783 N.pl3   
  26 N26           -3.6974     6.2261     2.1028 N.2     
  27 C27           -2.8008     5.3406     1.7573 C.2     
  28 C28           -3.8177     8.1904     3.7272 C.3     
  29 H29            0.9116    -2.4992     1.5154 H       
  30 H30            3.0126    -1.2703     1.7291 H       
  31 H31            4.1695     0.9075     2.0431 H       
  32 H32           -1.3592     2.9243     2.1710 H       
  33 H33            0.8754     6.5392     2.6992 H       
  34 H34            2.9689     5.3077     2.5902 H       
  35 H35           -1.7617     1.4704    -0.1811 H       
  36 H36           -3.9431     2.3766     4.0953 H       
  37 H37           -1.7583     1.1956     4.0907 H       
  38 H38           -1.1891     7.0955     4.0196 H       
  39 H39           -2.9319     4.5582     1.0245 H       
  40 H40           -3.6409     9.0996     3.1525 H       
  41 H41           -4.8887     7.9937     3.7756 H       
  42 H42           -3.4255     8.3165     4.7364 H       
@<TRIPOS>BOND
   1    1    2 am
   2    1   10 1
   3    1   17 1
   4    2    3 1
   5    2   15 2
   6    3    4 2
   7    3   29 1
   8    4    5 1
   9    4   30 1
  10    5    6 ar
  11    5   10 ar
  12    6    7 ar
  13    6   31 1
  14    7    8 ar
  15    8    9 ar
  16    8   14 ar
  17    9   10 ar
  18    9   11 ar
  19   11   12 ar
  20   11   32 1
  21   12   13 ar
  22   12   16 1
  23   13   14 ar
  24   13   33 1
  25   14   34 1
  26   16   24 2
  27   16   27 1
  28   17   18 ar
  29   17   22 ar
  30   18   19 ar
  31   18   35 1
  32   19   20 ar
  33   20   21 ar
  34   20   23 1
  35   21   22 ar
  36   21   36 1
  37   22   37 1
  38   24   25 1
  39   24   38 1
  40   25   26 1
  41   25   28 1
  42   26   27 2
  43   27   39 1
  44   28   40 1
  45   28   41 1
  46   28   42 1

#	End of record

