#	Name: ASD00170672
#	Creating user name:	WinNT
#	Creation time:	15. 06. 2019 18:32

#	Modifying user name:	WinNT
#	Modification time:	15. 06. 2019 18:32

#	Program:	/corina/corina34_cracker 3.40 0067  02.08.2006

@<TRIPOS>MOLECULE
ASD00170672
  80   85    0    0    0
SMALL
NO_CHARGES


@<TRIPOS>ATOM
   1 O1             0.7035     1.6549    -0.6693 O.3     
   2 C2             0.3786     0.3159    -0.2905 C.3     
   3 C3            -1.1408     0.1362    -0.3050 C.3     
   4 O4            -1.6524     0.2419    -1.6509 O.3     
   5 C5            -2.9291    -0.4184    -1.6676 C.3     
   6 C6            -2.9105    -1.4800    -0.5508 C.3     
   7 C7            -1.5239    -1.3057     0.1153 C.3     
   8 O8            -0.5872    -2.2533    -0.4012 O.3     
   9 O9            -3.9538    -1.2311     0.3934 O.3     
  10 N10           -3.1388    -1.0645    -2.9656 N.pl3   
  11 C11           -2.1674    -1.4558    -3.8382 C.2     
  12 N12           -2.7076    -1.9953    -4.8922 N.2     
  13 C13           -4.0560    -1.9845    -4.7634 C.ar    
  14 C14           -4.3488    -1.3921    -3.5233 C.ar    
  15 N15           -5.6188    -1.2612    -3.1539 N.ar    
  16 C16           -6.5916    -1.6793    -3.9359 C.ar    
  17 N17           -6.3659    -2.2418    -5.1092 N.ar    
  18 C18           -5.1286    -2.4190    -5.5609 C.ar    
  19 N19           -4.9018    -3.0098    -6.7926 N.pl3   
  20 C20           -5.9706    -3.5403    -7.5206 C.ar    
  21 C21           -5.9481    -3.5140    -8.9093 C.ar    
  22 C22           -7.0055    -4.0395    -9.6255 C.ar    
  23 C23           -8.0859    -4.5914    -8.9618 C.ar    
  24 C24           -8.1115    -4.6191    -7.5794 C.ar    
  25 C25           -7.0550    -4.1002    -6.8571 C.ar    
  26 C26           -9.2382    -5.1634    -9.7467 C.3     
  27 C27           -8.9790    -6.6450   -10.0266 C.3     
  28 N28          -10.0992    -7.2011   -10.7897 N.am    
  29 C29          -10.0892    -8.4991   -11.1523 C.2     
  30 O30           -9.1507    -9.2085   -10.8462 O.2     
  31 C31          -11.2197    -9.0603   -11.9223 C.ar    
  32 C32          -12.2987    -8.2488   -12.2754 C.ar    
  33 C33          -13.3504    -8.7789   -12.9940 C.ar    
  34 C34          -13.3385   -10.1112   -13.3652 C.ar    
  35 C35          -12.2694   -10.9225   -13.0174 C.ar    
  36 C36          -11.2099   -10.4029   -12.3044 C.ar    
  37 C37          -12.5353   -12.3111   -13.5537 C.3     
  38 C38          -11.2660   -12.8853   -14.1863 C.3     
  39 C39          -13.0258   -13.2266   -12.4303 C.3     
  40 N40          -13.5896   -12.1484   -14.5802 N.3     
  41 C41          -14.3335   -10.9470   -14.1389 C.3     
  42 C42          -15.5005   -11.3503   -13.2354 C.3     
  43 C43          -14.8475   -10.1687   -15.3517 C.3     
  44 O44          -14.4644   -13.3202   -14.6235 O.3     
  45 H45            1.6524     1.8408    -0.6819 H       
  46 H46            0.8336    -0.3813    -0.9940 H       
  47 H47            0.7581     0.1197     0.7123 H       
  48 H48           -1.6189     0.8682     0.3460 H       
  49 H49           -3.7228     0.3045    -1.4786 H       
  50 H50           -3.0077    -2.4800    -0.9734 H       
  51 H51           -1.6002    -1.3875     1.1995 H       
  52 H52            0.2963    -2.1838    -0.0145 H       
  53 H53           -3.9885    -1.8697     1.1187 H       
  54 H54           -1.1061    -1.3355    -3.6785 H       
  55 H55           -7.6126    -1.5582    -3.6053 H       
  56 H56           -4.0013    -3.0555    -7.1502 H       
  57 H57           -5.1048    -3.0829    -9.4283 H       
  58 H58           -6.9888    -4.0191   -10.7052 H       
  59 H59           -8.9568    -5.0509    -7.0642 H       
  60 H60           -7.0756    -4.1222    -5.7775 H       
  61 H61          -10.1578    -5.0578    -9.1712 H       
  62 H62           -9.3367    -4.6271   -10.6905 H       
  63 H63           -8.0594    -6.7506   -10.6022 H       
  64 H64           -8.8805    -7.1813    -9.0828 H       
  65 H65          -10.8481    -6.6351   -11.0339 H       
  66 H66          -12.3107    -7.2083   -11.9865 H       
  67 H67          -14.1859    -8.1515   -13.2673 H       
  68 H68          -10.3777   -11.0359   -12.0341 H       
  69 H69          -10.4776   -12.9378   -13.4355 H       
  70 H70          -11.4709   -13.8853   -14.5685 H       
  71 H71          -10.9452   -12.2418   -15.0056 H       
  72 H72          -13.8759   -12.7636   -11.9294 H       
  73 H73          -13.3295   -14.1857   -12.8497 H       
  74 H74          -12.2214   -13.3827   -11.7115 H       
  75 H75          -15.1130   -11.7600   -12.3026 H       
  76 H76          -16.1133   -10.4748   -13.0208 H       
  77 H77          -16.1065   -12.1034   -13.7390 H       
  78 H78          -15.5320   -10.7961   -15.9227 H       
  79 H79          -15.3706    -9.2739   -15.0142 H       
  80 H80          -14.0061    -9.8815   -15.9824 H       
@<TRIPOS>BOND
   1    1    2 1
   2    1   45 1
   3    2    3 1
   4    2   46 1
   5    2   47 1
   6    3    4 1
   7    3    7 1
   8    3   48 1
   9    4    5 1
  10    5    6 1
  11    5   10 1
  12    5   49 1
  13    6    7 1
  14    6    9 1
  15    6   50 1
  16    7    8 1
  17    7   51 1
  18    8   52 1
  19    9   53 1
  20   10   11 1
  21   10   14 1
  22   11   12 2
  23   11   54 1
  24   12   13 1
  25   13   14 ar
  26   13   18 ar
  27   14   15 ar
  28   15   16 ar
  29   16   17 ar
  30   16   55 1
  31   17   18 ar
  32   18   19 1
  33   19   20 1
  34   19   56 1
  35   20   21 ar
  36   20   25 ar
  37   21   22 ar
  38   21   57 1
  39   22   23 ar
  40   22   58 1
  41   23   24 ar
  42   23   26 1
  43   24   25 ar
  44   24   59 1
  45   25   60 1
  46   26   27 1
  47   26   61 1
  48   26   62 1
  49   27   28 1
  50   27   63 1
  51   27   64 1
  52   28   29 am
  53   28   65 1
  54   29   30 2
  55   29   31 1
  56   31   32 ar
  57   31   36 ar
  58   32   33 ar
  59   32   66 1
  60   33   34 ar
  61   33   67 1
  62   34   35 ar
  63   34   41 1
  64   35   36 ar
  65   35   37 1
  66   36   68 1
  67   37   38 1
  68   37   39 1
  69   37   40 1
  70   38   69 1
  71   38   70 1
  72   38   71 1
  73   39   72 1
  74   39   73 1
  75   39   74 1
  76   40   41 1
  77   40   44 1
  78   41   42 1
  79   41   43 1
  80   42   75 1
  81   42   76 1
  82   42   77 1
  83   43   78 1
  84   43   79 1
  85   43   80 1

#	End of record

