#	Name: ASD01148424
#	Creating user name:	WinNT
#	Creation time:	15. 06. 2019 19:02

#	Modifying user name:	WinNT
#	Modification time:	15. 06. 2019 19:02

#	Program:	/corina/corina34_cracker 3.40 0067  02.08.2006

@<TRIPOS>MOLECULE
ASD01148424
  49   51    0    0    0
SMALL
NO_CHARGES


@<TRIPOS>ATOM
   1 C1             0.3637     1.8424     0.0677 C.ar    
   2 C2             0.4621     0.4647    -0.0077 C.ar    
   3 C3            -0.6821    -0.3060    -0.0948 C.ar    
   4 C4            -1.9245     0.2997    -0.1064 C.ar    
   5 C5            -2.0235     1.6767    -0.0310 C.ar    
   6 C6            -0.8805     2.4479     0.0613 C.ar    
   7 C7            -3.3784     2.3364    -0.0438 C.3     
   8 O8            -4.3697     1.4914     0.5749 O.3     
   9 C9            -3.3995     3.5763     0.8816 C.3     
  10 C10           -3.9250     3.0059     2.1852 C.2     
  11 N11           -4.4445     1.8497     1.9406 N.2     
  12 C12           -3.8546     3.6603     3.5064 C.ar    
  13 C13           -4.3805     3.0205     4.6320 C.ar    
  14 C14           -3.2572     4.9169     3.6325 C.ar    
  15 C15           -3.1915     5.5273     4.8646 C.ar    
  16 C16           -3.7223     4.8902     5.9890 C.ar    
  17 C17           -4.3149     3.6307     5.8638 C.ar    
  18 C18           -3.6519     5.5451     7.3111 C.2     
  19 O19           -4.2098     5.0446     8.2676 O.2     
  20 N20           -2.9689     6.6979     7.4566 N.am    
  21 C21           -4.8879     2.9437     7.0765 C.3     
  22 C22           -3.7895     2.7092    -1.4696 C.3     
  23 F23           -3.8284     1.5558    -2.2604 F       
  24 F24           -5.0557     3.3038    -1.4495 F       
  25 F25           -2.8602     3.6089    -2.0027 F       
  26 Cl26           1.8002     2.8109     0.1776 Cl      
  27 C27           -2.9046     7.2955     8.6629 C.2     
  28 O28           -2.2225     8.4466     8.8082 O.3     
  29 C29           -2.1957     9.0340    10.1358 C.3     
  30 O30           -3.4623     6.7952     9.6190 O.2     
  31 C31           -0.5750    -1.8069    -0.1774 C.3     
  32 F32            0.7729    -2.1806    -0.1489 F       
  33 F33           -1.2416    -2.3826     0.9095 F       
  34 F34           -1.1569    -2.2510    -1.3697 F       
  35 H35            1.4328    -0.0087     0.0010 H       
  36 H36           -2.8182    -0.3028    -0.1748 H       
  37 H37           -0.9580     3.5236     0.1201 H       
  38 H38           -2.3949     3.9786     1.0125 H       
  39 H39           -4.0749     4.3382     0.4925 H       
  40 H40           -4.8387     2.0473     4.5352 H       
  41 H41           -2.8465     5.4093     2.7634 H       
  42 H42           -2.7293     6.4985     4.9622 H       
  43 H43           -2.5235     7.0974     6.6931 H       
  44 H44           -5.8957     3.3151     7.2623 H       
  45 H45           -4.9235     1.8683     6.9020 H       
  46 H46           -4.2590     3.1506     7.9424 H       
  47 H47           -3.2140     9.2545    10.4561 H       
  48 H48           -1.7390     8.3328    10.8342 H       
  49 H49           -1.6141     9.9556    10.1137 H       
@<TRIPOS>BOND
   1    1    2 ar
   2    1   26 1
   3    1    6 ar
   4    2    3 ar
   5    2   35 1
   6    3    4 ar
   7    3   31 1
   8    4    5 ar
   9    4   36 1
  10    5    6 ar
  11    5    7 1
  12    6   37 1
  13    7    8 1
  14    7    9 1
  15    7   22 1
  16    8   11 1
  17    9   10 1
  18    9   38 1
  19    9   39 1
  20   10   11 2
  21   10   12 1
  22   12   13 ar
  23   12   14 ar
  24   13   17 ar
  25   13   40 1
  26   14   15 ar
  27   14   41 1
  28   15   16 ar
  29   15   42 1
  30   16   17 ar
  31   16   18 1
  32   17   21 1
  33   18   19 2
  34   18   20 am
  35   20   27 am
  36   20   43 1
  37   21   44 1
  38   21   45 1
  39   21   46 1
  40   22   23 1
  41   22   24 1
  42   22   25 1
  43   27   28 1
  44   27   30 2
  45   28   29 1
  46   29   47 1
  47   29   48 1
  48   29   49 1
  49   31   32 1
  50   31   33 1
  51   31   34 1

#	End of record

