#	Name: ASD03330528
#	Creating user name:	WinNT
#	Creation time:	15. 06. 2019 20:37

#	Modifying user name:	WinNT
#	Modification time:	15. 06. 2019 20:37

#	Program:	/corina/corina34_cracker 3.40 0067  02.08.2006

@<TRIPOS>MOLECULE
ASD03330528
  60   62    0    0    0
SMALL
NO_CHARGES


@<TRIPOS>ATOM
   1 C1            -0.5208     1.8016    -0.6116 C.2     
   2 N2            -0.6448     0.4694    -0.8528 N.pl3   
   3 C3             0.8116     2.0711    -0.5288 C.2     
   4 N4             1.4797     0.9152    -0.7356 N.2     
   5 C5             0.6138    -0.0504    -0.9367 C.2     
   6 C6             0.9467    -1.4656    -1.2083 C.ar    
   7 C7             1.4164     3.3881    -0.2621 C.2     
   8 O8             0.7058     4.3605    -0.0922 O.2     
   9 C9             3.3583     4.8246     0.0587 C.3     
  10 N10            2.7570     3.5152    -0.2064 N.am    
  11 C11            3.4200     5.0610     1.5690 C.3     
  12 C12            4.2247     3.9391     2.2284 C.3     
  13 C13            4.0959     6.4051     1.8476 C.3     
  14 C14            2.0012     5.0753     2.1415 C.3     
  15 C15            4.7521     4.8623    -0.5131 C.2     
  16 N16            5.3517     6.0460    -0.7492 N.am    
  17 O17            5.3341     3.8276    -0.7608 O.2     
  18 C18            6.6655     6.0854    -1.3963 C.3     
  19 C19            0.3110    -2.4841    -0.4975 C.ar    
  20 C20            1.8952    -1.7891    -2.1819 C.ar    
  21 C21            2.2006    -3.1145    -2.4302 C.ar    
  22 C22            1.5695    -4.1170    -1.7174 C.ar    
  23 C23            0.6254    -3.8022    -0.7556 C.ar    
  24 C24           -1.9112    -0.2568    -0.9807 C.3     
  25 C25           -2.8439     0.5206    -1.9148 C.3     
  26 C26           -3.6422     1.5431    -1.1126 C.3     
  27 N27           -2.8519     2.0732     0.0002 N.3     
  28 C28           -1.6575     2.7821    -0.4827 C.3     
  29 F29            2.5117    -0.8097    -2.8790 F       
  30 C30            1.9070    -5.5597    -1.9930 C.3     
  31 H31            2.7535     5.6030    -0.4065 H       
  32 H32            3.3237     2.7397    -0.3419 H       
  33 H33            5.2355     3.9289     1.8206 H       
  34 H34            4.2687     4.1076     3.3044 H       
  35 H35            3.7432     2.9816     2.0299 H       
  36 H36            3.5070     7.2071     1.4026 H       
  37 H37            4.1662     6.5602     2.9242 H       
  38 H38            5.0962     6.4054     1.4145 H       
  39 H39            1.5197     4.1178     1.9430 H       
  40 H40            2.0452     5.2438     3.2175 H       
  41 H41            1.4279     5.8746     1.6717 H       
  42 H42            4.9135     6.8718    -0.4907 H       
  43 H43            6.9872     7.1214    -1.5026 H       
  44 H44            7.3872     5.5415    -0.7868 H       
  45 H45            6.5995     5.6226    -2.3810 H       
  46 H46           -0.4258    -2.2409     0.2538 H       
  47 H47            2.9331    -3.3671    -3.1826 H       
  48 H48            0.1365    -4.5906    -0.2027 H       
  49 H49           -1.7231    -1.2471    -1.3954 H       
  50 H50           -2.3763    -0.3538     0.0003 H       
  51 H51           -2.2520     1.0357    -2.6715 H       
  52 H52           -3.5292    -0.1729    -2.4021 H       
  53 H53           -3.9327     2.3641    -1.7680 H       
  54 H54           -4.5399     1.0665    -0.7185 H       
  55 H55           -3.4125     2.6696     0.5901 H       
  56 H56           -1.3859     3.5638     0.2268 H       
  57 H57           -1.8665     3.2277    -1.4553 H       
  58 H58            2.7302    -5.8696    -1.3493 H       
  59 H59            1.0347    -6.1816    -1.7921 H       
  60 H60            2.2001    -5.6712    -3.0369 H       
@<TRIPOS>BOND
   1    1    2 1
   2    1    3 2
   3    1   28 1
   4    2   24 1
   5    2    5 1
   6    3    4 1
   7    3    7 1
   8    4    5 2
   9    5    6 1
  10    6   19 ar
  11    6   20 ar
  12    7    8 2
  13    7   10 am
  14    9   10 1
  15    9   11 1
  16    9   15 1
  17    9   31 1
  18   10   32 1
  19   11   12 1
  20   11   13 1
  21   11   14 1
  22   12   33 1
  23   12   34 1
  24   12   35 1
  25   13   36 1
  26   13   37 1
  27   13   38 1
  28   14   39 1
  29   14   40 1
  30   14   41 1
  31   15   16 am
  32   15   17 2
  33   16   18 1
  34   16   42 1
  35   18   43 1
  36   18   44 1
  37   18   45 1
  38   19   23 ar
  39   19   46 1
  40   20   21 ar
  41   20   29 1
  42   21   22 ar
  43   21   47 1
  44   22   23 ar
  45   22   30 1
  46   23   48 1
  47   24   25 1
  48   24   49 1
  49   24   50 1
  50   25   26 1
  51   25   51 1
  52   25   52 1
  53   26   27 1
  54   26   53 1
  55   26   54 1
  56   27   28 1
  57   27   55 1
  58   28   56 1
  59   28   57 1
  60   30   58 1
  61   30   59 1
  62   30   60 1

#	End of record

