#	Name: ASD02198444
#	Creating user name:	WinNT
#	Creation time:	15. 06. 2019 20:19

#	Modifying user name:	WinNT
#	Modification time:	15. 06. 2019 20:19

#	Program:	/corina/corina34_cracker 3.40 0067  02.08.2006

@<TRIPOS>MOLECULE
ASD02198444
  35   37    0    0    0
SMALL
NO_CHARGES


@<TRIPOS>ATOM
   1 C1            -0.2844     1.6280     0.2789 C.ar    
   2 S2            -0.5318    -0.1163     0.2475 S.o2    
   3 C3             1.7980     0.4420    -2.4178 C.ar    
   4 C4             3.1486     0.5691    -2.7353 C.ar    
   5 C5             4.0944    -0.2867    -2.1609 C.ar    
   6 C6             3.6464    -1.2745    -1.2578 C.ar    
   7 C7             2.3249    -1.3898    -0.9555 C.ar    
   8 C8             1.3862    -0.5350    -1.5300 C.ar    
   9 O9             0.3267    -0.6613     1.2402 O.2     
  10 O10           -1.9378    -0.3220     0.2379 O.2     
  11 C11           -0.9371     2.4440    -0.6469 C.ar    
  12 C12           -0.7353     3.8254    -0.6150 C.ar    
  13 C13            0.1064     4.3745     0.3296 C.ar    
  14 C14            0.7502     3.5598     1.2444 C.ar    
  15 C15            0.5504     2.1910     1.2221 C.ar    
  16 S16            3.9912     1.6850    -3.8073 S.3     
  17 C17            5.5268     0.9276    -3.4078 C.2     
  18 N18            5.3508    -0.0280    -2.5746 N.2     
  19 N19            0.0312    -0.6651    -1.2100 N.am    
  20 C20           -1.8368     1.8487    -1.6561 C.2     
  21 O21           -2.5647     2.6450    -2.4628 O.3     
  22 O22           -1.9202     0.6412    -1.7586 O.2     
  23 C23           -3.5171     1.9953    -3.3455 C.3     
  24 H24            1.0736     1.1089    -2.8615 H       
  25 H25            4.3595    -1.9461    -0.8030 H       
  26 H26            1.9999    -2.1517    -0.2625 H       
  27 H27           -1.2369     4.4623    -1.3285 H       
  28 H28            0.2636     5.4427     0.3552 H       
  29 H29            1.4086     3.9950     1.9818 H       
  30 H30            1.0560     1.5610     1.9388 H       
  31 H31            6.4839     1.2265    -3.8092 H       
  32 H32           -0.5790    -1.0768    -1.8417 H       
  33 H33           -4.0943     2.7518    -3.8772 H       
  34 H34           -2.9818     1.3750    -4.0643 H       
  35 H35           -4.1903     1.3714    -2.7576 H       
@<TRIPOS>BOND
   1    1    2 1
   2    1   11 ar
   3    1   15 ar
   4    2    9 2
   5    2   10 2
   6    2   19 am
   7    3    4 ar
   8    3    8 ar
   9    3   24 1
  10    4    5 ar
  11    4   16 1
  12    5    6 ar
  13    5   18 1
  14    6    7 ar
  15    6   25 1
  16    7    8 ar
  17    7   26 1
  18    8   19 1
  19   11   12 ar
  20   11   20 1
  21   12   13 ar
  22   12   27 1
  23   13   14 ar
  24   13   28 1
  25   14   15 ar
  26   14   29 1
  27   15   30 1
  28   16   17 1
  29   17   18 2
  30   17   31 1
  31   19   32 1
  32   20   21 1
  33   20   22 2
  34   21   23 1
  35   23   33 1
  36   23   34 1
  37   23   35 1

#	End of record

