#	Name: ASD01811228
#	Creating user name:	WinNT
#	Creation time:	15. 06. 2019 19:26

#	Modifying user name:	WinNT
#	Modification time:	15. 06. 2019 19:26

#	Program:	/corina/corina34_cracker 3.40 0067  02.08.2006

@<TRIPOS>MOLECULE
ASD01811228
  36   37    0    0    0
SMALL
NO_CHARGES


@<TRIPOS>ATOM
   1 C1             0.4888     1.3977    -0.4763 C.2     
   2 C2             0.2477    -0.0397    -0.2346 C.ar    
   3 C3             1.3190    -0.8914     0.0501 C.ar    
   4 C4             1.0968    -2.2354     0.2764 C.ar    
   5 C5            -0.1834    -2.7489     0.2231 C.ar    
   6 C6            -1.2659    -1.9087    -0.0608 C.ar    
   7 C7            -1.0482    -0.5479    -0.2843 C.ar    
   8 O8             1.6109     1.8512    -0.3725 O.2     
   9 O9            -0.5348     2.2044    -0.8171 O.3     
  10 C10            2.7208    -0.3413     0.1098 C.3     
  11 C11           -0.4156    -4.2172     0.4705 C.3     
  12 C12            0.0671    -5.1192    -0.6776 C.3     
  13 C13            0.5711    -6.0908     0.4027 C.3     
  14 C14            0.6699    -4.8748     1.3388 C.3     
  15 C15           -2.6307    -2.4569    -0.1175 C.2     
  16 O16           -2.8073    -3.6536    -0.0345 O.2     
  17 C17           -3.8086    -1.5308    -0.2786 C.3     
  18 C18           -0.2243     3.6053    -1.0393 C.3     
  19 H19            1.9288    -2.8881     0.4959 H       
  20 H20           -1.8799     0.1066    -0.4991 H       
  21 H21            2.9113     0.0607     1.1049 H       
  22 H22            3.4333    -1.1384    -0.1026 H       
  23 H23            2.8317     0.4517    -0.6298 H       
  24 H24           -1.4315    -4.4354     0.7997 H       
  25 H25           -0.7425    -5.5236    -1.2851 H       
  26 H26            0.8652    -4.6773    -1.2741 H       
  27 H27           -0.1745    -6.8223     0.7143 H       
  28 H28            1.5357    -6.5414     0.1689 H       
  29 H29            1.6329    -4.3660     1.2936 H       
  30 H30            0.3470    -5.0818     2.3591 H       
  31 H31           -4.0173    -1.3894    -1.3390 H       
  32 H32           -4.6816    -1.9651     0.2087 H       
  33 H33           -3.5790    -0.5680     0.1780 H       
  34 H34            0.1953     4.0333    -0.1289 H       
  35 H35            0.4999     3.6929    -1.8492 H       
  36 H36           -1.1350     4.1413    -1.3066 H       
@<TRIPOS>BOND
   1    1    2 1
   2    1    8 2
   3    1    9 1
   4    2    3 ar
   5    2    7 ar
   6    3    4 ar
   7    3   10 1
   8    4    5 ar
   9    4   19 1
  10    5    6 ar
  11    5   11 1
  12    6    7 ar
  13    6   15 1
  14    7   20 1
  15    9   18 1
  16   10   21 1
  17   10   22 1
  18   10   23 1
  19   11   12 1
  20   11   14 1
  21   11   24 1
  22   12   13 1
  23   12   25 1
  24   12   26 1
  25   13   14 1
  26   13   27 1
  27   13   28 1
  28   14   29 1
  29   14   30 1
  30   15   16 2
  31   15   17 1
  32   17   31 1
  33   17   32 1
  34   17   33 1
  35   18   34 1
  36   18   35 1
  37   18   36 1

#	End of record

