#	Name: ASD07930775
#	Creating user name:	WinNT
#	Creation time:	15. 06. 2019 21:13

#	Modifying user name:	WinNT
#	Modification time:	15. 06. 2019 21:13

#	Program:	/corina/corina34_cracker 3.40 0067  02.08.2006

@<TRIPOS>MOLECULE
ASD07930775
  47   49    0    0    0
SMALL
NO_CHARGES


@<TRIPOS>ATOM
   1 C1            -0.0502     1.4821    -0.0094 C.3     
   2 N2             0.7773    -0.3946    -2.1782 N.2     
   3 N3            -0.8979    -1.7688    -1.3026 N.pl3   
   4 C4            -0.9127    -2.8082    -0.2679 C.3     
   5 C5            -1.2240    -2.1653     1.0907 C.3     
   6 S6             0.0077    -0.8612     1.4011 S.o2    
   7 N7            -0.0234     0.0174    -0.0143 N.am    
   8 C8            -0.0231    -0.7068    -1.1980 C.2     
   9 C9             0.4557    -3.4900    -0.2090 C.3     
  10 O10           -0.4553     0.0438     2.3940 O.2     
  11 O11            1.3184    -1.4077     1.4540 O.2     
  12 C12           -1.9712    -3.8296    -0.5958 C.ar    
  13 C13           -1.8922    -4.5383    -1.7799 C.ar    
  14 N14           -2.9584    -4.0399     0.2534 N.ar    
  15 C15           -3.9093    -4.9272     0.0070 C.ar    
  16 C16           -3.8962    -5.6722    -1.1666 C.ar    
  17 C17           -2.8708    -5.4785    -2.0756 C.ar    
  18 Cl18          -0.5842    -4.2558    -2.8858 Cl      
  19 N19           -4.9332    -5.1168     0.9332 N.am    
  20 C20           -4.8971    -4.4757     2.1182 C.2     
  21 C21           -6.0391    -4.5861     3.0551 C.ar    
  22 O22           -3.9277    -3.8071     2.4181 O.2     
  23 C23           -5.9957    -3.9210     4.2787 C.ar    
  24 N24           -7.0975    -5.3135     2.7198 N.ar    
  25 C25           -8.1319    -5.4374     3.5225 C.ar    
  26 C26           -8.1545    -4.8078     4.7566 C.ar    
  27 C27           -7.0717    -4.0339     5.1446 C.ar    
  28 C28           -9.3470    -4.9579     5.6656 C.3     
  29 F29          -10.3017    -5.7755     5.0513 F       
  30 F30           -8.9432    -5.5385     6.8727 F       
  31 F31           -9.9034    -3.6991     5.9168 F       
  32 H32            0.9705     1.8643    -0.0191 H       
  33 H33           -0.5801     1.8388    -0.8927 H       
  34 H34           -0.5611     1.8332     0.8872 H       
  35 H35            0.7641    -0.9119    -2.9987 H       
  36 H36           -1.4993    -1.8299    -2.0612 H       
  37 H37           -2.2231    -1.7299     1.0709 H       
  38 H38           -1.1667    -2.9193     1.8757 H       
  39 H39            1.2200    -2.7506     0.0301 H       
  40 H40            0.4440    -4.2622     0.5601 H       
  41 H41            0.6779    -3.9428    -1.1753 H       
  42 H42           -4.6736    -6.3953    -1.3645 H       
  43 H43           -2.8347    -6.0425    -2.9959 H       
  44 H44           -5.6718    -5.7101     0.7251 H       
  45 H45           -5.1356    -3.3262     4.5485 H       
  46 H46           -8.9755    -6.0377     3.2154 H       
  47 H47           -7.0652    -3.5335     6.1017 H       
@<TRIPOS>BOND
   1    1    7 1
   2    1   32 1
   3    1   33 1
   4    1   34 1
   5    2    8 2
   6    2   35 1
   7    3    4 1
   8    3    8 1
   9    3   36 1
  10    4    5 1
  11    4    9 1
  12    4   12 1
  13    5    6 1
  14    5   37 1
  15    5   38 1
  16    6    7 am
  17    6   10 2
  18    6   11 2
  19    7    8 1
  20    9   39 1
  21    9   40 1
  22    9   41 1
  23   12   14 ar
  24   12   13 ar
  25   13   18 1
  26   13   17 ar
  27   14   15 ar
  28   15   16 ar
  29   15   19 1
  30   16   17 ar
  31   16   42 1
  32   17   43 1
  33   19   20 am
  34   19   44 1
  35   20   21 1
  36   20   22 2
  37   21   23 ar
  38   21   24 ar
  39   23   27 ar
  40   23   45 1
  41   24   25 ar
  42   25   26 ar
  43   25   46 1
  44   26   27 ar
  45   26   28 1
  46   27   47 1
  47   28   29 1
  48   28   30 1
  49   28   31 1

#	End of record

