#	Name: ASD01411200
#	Creating user name:	WinNT
#	Creation time:	15. 06. 2019 19:19

#	Modifying user name:	WinNT
#	Modification time:	15. 06. 2019 19:19

#	Program:	/corina/corina34_cracker 3.40 0067  02.08.2006

@<TRIPOS>MOLECULE
ASD01411200
  78   80    0    0    0
SMALL
NO_CHARGES


@<TRIPOS>ATOM
   1 C1            -1.2205     2.6716    -0.5825 C.ar    
   2 C2            -0.8903     1.4911     0.0342 C.ar    
   3 C3             0.4048     0.9811    -0.0353 C.ar    
   4 C4             1.3746     1.6858    -0.7356 C.ar    
   5 C5             1.0483     2.8755    -1.3562 C.ar    
   6 C6            -0.2457     3.3737    -1.2853 C.ar    
   7 P7            -2.1174     0.5352     0.9759 P.3     
   8 N8            -1.2828    -0.5914     1.8411 N.2     
   9 C9            -0.0358    -0.8216     1.5655 C.2     
  10 N10            0.7049    -0.2262     0.5905 N.pl3   
  11 C11            0.6494    -1.8318     2.3933 C.2     
  12 C12            0.0808    -2.5332     3.4124 C.2     
  13 C13            1.1558    -3.4426     3.9619 C.3     
  14 N14            2.3565    -3.1800     3.1594 N.am    
  15 C15            2.0474    -2.2435     2.2447 C.2     
  16 C16            3.6603    -3.8279     3.3223 C.3     
  17 C17            3.6645    -5.1612     2.5719 C.3     
  18 C18            5.0262    -5.8379     2.7420 C.3     
  19 C19            5.2890    -6.0884     4.2283 C.3     
  20 C20            5.0304    -7.1711     1.9915 C.3     
  21 C21            6.1207    -4.9307     2.1764 C.3     
  22 O22           -2.8595     1.4290     1.8928 O.2     
  23 O23           -3.1398    -0.1924    -0.0328 O.3     
  24 O24           -1.1882    -2.4359     3.8452 O.3     
  25 O25            2.8189    -1.8000     1.4151 O.2     
  26 C26           -3.9643     0.5228    -0.9551 C.3     
  27 C27           -4.8104    -0.4681    -1.7572 C.3     
  28 C28            1.4225    -3.1149     5.4323 C.3     
  29 C29            0.1084    -3.1712     6.2139 C.3     
  30 C30            2.4049    -4.1346     6.0121 C.3     
  31 C31            2.0210    -1.7110     5.5415 C.3     
  32 N32           -0.5693     4.5805    -1.9192 N.am    
  33 S33            0.5864     5.7509    -2.1111 S.o2    
  34 C34           -1.8212     4.7888    -2.3730 C.2     
  35 O35           -2.6386     3.8937    -2.3301 O.2     
  36 C36           -2.2054     6.1339    -2.9335 C.3     
  37 O37           -0.0654     6.9535    -1.7262 O.2     
  38 O38            1.7059     5.2601    -1.3864 O.2     
  39 C39            0.9336     5.7567    -3.8915 C.3     
  40 H40           -2.2302     3.0508    -0.5267 H       
  41 H41            2.3832     1.3042    -0.7946 H       
  42 H42            1.8046     3.4220    -1.9001 H       
  43 H43            1.5120    -0.6832     0.3066 H       
  44 H44            0.8551    -4.4851     3.8575 H       
  45 H45            4.4401    -3.1816     2.9193 H       
  46 H46            3.8475    -4.0063     4.3812 H       
  47 H47            2.8847    -5.8074     2.9749 H       
  48 H48            3.4773    -4.9827     1.5130 H       
  49 H49            4.5092    -6.7346     4.6313 H       
  50 H50            6.2591    -6.5704     4.3495 H       
  51 H51            5.2860    -5.1385     4.7630 H       
  52 H52            4.8432    -6.9927     0.9327 H       
  53 H53            6.0005    -7.6532     2.1128 H       
  54 H54            4.2506    -7.8174     2.3945 H       
  55 H55            6.1177    -3.9809     2.7110 H       
  56 H56            7.0908    -5.4128     2.2976 H       
  57 H57            5.9335    -4.7523     1.1175 H       
  58 H58           -1.7605    -1.8041     3.3887 H       
  59 H59           -4.6197     1.1998    -0.4072 H       
  60 H60           -3.3352     1.0971    -1.6351 H       
  61 H61           -4.1550    -1.1451    -2.3051 H       
  62 H62           -5.4395    -1.0424    -1.0772 H       
  63 H63           -5.4393     0.0774    -2.4608 H       
  64 H64           -0.3180    -4.1714     6.1362 H       
  65 H65            0.2984    -2.9377     7.2615 H       
  66 H66           -0.5914    -2.4448     5.8009 H       
  67 H67            3.4197    -3.8721     5.7131 H       
  68 H68            2.3339    -4.1297     7.0998 H       
  69 H69            2.1609    -5.1283     5.6365 H       
  70 H70            1.3212    -0.9845     5.1285 H       
  71 H71            2.2110    -1.4775     6.5891 H       
  72 H72            2.9572    -1.6708     4.9847 H       
  73 H73           -1.3236     6.7728    -2.9816 H       
  74 H74           -2.6165     6.0062    -3.9349 H       
  75 H75           -2.9539     6.5955    -2.2895 H       
  76 H76            0.0209     5.9925    -4.4389 H       
  77 H77            1.6931     6.5071    -4.1112 H       
  78 H78            1.2954     4.7741    -4.1944 H       
@<TRIPOS>BOND
   1    1    2 ar
   2    1    6 ar
   3    1   40 1
   4    2    3 ar
   5    2    7 1
   6    3    4 ar
   7    3   10 1
   8    4    5 ar
   9    4   41 1
  10    5    6 ar
  11    5   42 1
  12    6   32 1
  13    7    8 1
  14    7   22 2
  15    7   23 1
  16    8    9 2
  17    9   10 1
  18    9   11 1
  19   10   43 1
  20   11   12 2
  21   11   15 1
  22   12   13 1
  23   12   24 1
  24   13   14 1
  25   13   28 1
  26   13   44 1
  27   14   15 am
  28   14   16 1
  29   15   25 2
  30   16   17 1
  31   16   45 1
  32   16   46 1
  33   17   18 1
  34   17   47 1
  35   17   48 1
  36   18   19 1
  37   18   20 1
  38   18   21 1
  39   19   49 1
  40   19   50 1
  41   19   51 1
  42   20   52 1
  43   20   53 1
  44   20   54 1
  45   21   55 1
  46   21   56 1
  47   21   57 1
  48   23   26 1
  49   24   58 1
  50   26   27 1
  51   26   59 1
  52   26   60 1
  53   27   61 1
  54   27   62 1
  55   27   63 1
  56   28   29 1
  57   28   30 1
  58   28   31 1
  59   29   64 1
  60   29   65 1
  61   29   66 1
  62   30   67 1
  63   30   68 1
  64   30   69 1
  65   31   70 1
  66   31   71 1
  67   31   72 1
  68   32   33 am
  69   32   34 am
  70   33   37 2
  71   33   38 2
  72   33   39 1
  73   34   35 2
  74   34   36 1
  75   36   73 1
  76   36   74 1
  77   36   75 1
  78   39   76 1
  79   39   77 1
  80   39   78 1

#	End of record

