#	Name: ASD05060093
#	Creating user name:	WinNT
#	Creation time:	15. 06. 2019 20:56

#	Modifying user name:	WinNT
#	Modification time:	15. 06. 2019 20:56

#	Program:	/corina/corina34_cracker 3.40 0067  02.08.2006

@<TRIPOS>MOLECULE
ASD05060093
  23   24    0    0    0
SMALL
NO_CHARGES


@<TRIPOS>ATOM
   1 S1            -0.0211     1.7014     0.0114 S.3     
   2 C2             0.0021    -0.0041     0.0020 C.2     
   3 C3             1.2540    -0.4701    -0.0124 C.2     
   4 C4             2.2391     0.4976    -0.0166 C.2     
   5 C5             1.7354     1.7770    -0.0050 C.2     
   6 C6             2.5072     2.9644    -0.0064 C.2     
   7 O7             3.7223     2.9002    -0.0187 O.2     
   8 O8             1.8950     4.1671     0.0060 O.3     
   9 N9             3.6055     0.2069    -0.0313 N.pl3   
  10 C10            4.2744    -0.4074    -1.0404 C.2     
  11 C11            5.5805    -0.5172    -0.6977 C.2     
  12 C12            5.7415     0.0473     0.5715 C.2     
  13 C13            4.5021     0.5014     0.9746 C.2     
  14 C14            4.1945     1.1700     2.2404 C.2     
  15 O15            5.0781     1.3738     3.0510 O.2     
  16 O16            2.9310     1.5599     2.5076 O.3     
  17 H17           -0.8806    -0.6263     0.0074 H       
  18 H18            1.4792    -1.5264    -0.0199 H       
  19 H19            2.5038     4.9183     0.0039 H       
  20 H20            3.8365    -0.7528    -1.9653 H       
  21 H21            6.3597    -0.9624    -1.2985 H       
  22 H22            6.6635     0.1187     1.1295 H       
  23 H23            2.7767     1.9973     3.3562 H       
@<TRIPOS>BOND
   1    1    2 1
   2    1    5 1
   3    2    3 2
   4    2   17 1
   5    3    4 1
   6    3   18 1
   7    4    5 2
   8    4    9 1
   9    5    6 1
  10    6    7 2
  11    6    8 1
  12    8   19 1
  13    9   10 1
  14    9   13 1
  15   10   11 2
  16   10   20 1
  17   11   12 1
  18   11   21 1
  19   12   13 2
  20   12   22 1
  21   13   14 1
  22   14   15 2
  23   14   16 1
  24   16   23 1

#	End of record

