#	Name: ASD03092144
#	Creating user name:	WinNT
#	Creation time:	15. 06. 2019 20:32

#	Modifying user name:	WinNT
#	Modification time:	15. 06. 2019 20:32

#	Program:	/corina/corina34_cracker 3.40 0067  02.08.2006

@<TRIPOS>MOLECULE
ASD03092144
  45   47    0    0    0
SMALL
NO_CHARGES


@<TRIPOS>ATOM
   1 N1            -0.1416     1.4918    -0.1322 N.pl3   
   2 C2            -0.0718     0.1374     0.0065 C.2     
   3 C3            -1.3428    -0.3194     0.2090 C.2     
   4 C4            -2.2027     0.7861     0.1923 C.2     
   5 N5            -1.4848     1.8677    -0.0053 N.2     
   6 N6            -3.5916     0.7455     0.3638 N.pl3   
   7 C7            -4.3275     1.9358     0.3995 C.ar    
   8 C8            -5.6827     1.9073     0.7086 C.ar    
   9 C9            -6.4076     3.0865     0.7430 C.ar    
  10 C10           -5.7816     4.2930     0.4694 C.ar    
  11 C11           -3.7039     3.1471     0.1319 C.ar    
  12 C12            1.1557    -0.6866    -0.0516 C.ar    
  13 C13            0.9884     2.3944    -0.3662 C.3     
  14 C14            2.2994    -0.2270    -0.7179 C.ar    
  15 C15            3.4234    -1.0232    -0.7498 C.ar    
  16 N16            3.4353    -2.2064    -0.1642 N.ar    
  17 C17            2.3779    -2.6818     0.4770 C.ar    
  18 C18            1.2070    -1.9405     0.5611 C.ar    
  19 C19           -4.4324     4.3208     0.1613 C.ar    
  20 F20           -7.7247     3.0614     1.0427 F       
  21 C21            1.0743     2.7283    -1.8568 C.3     
  22 N22            2.4431    -3.9348     1.0764 N.pl3   
  23 C23            1.2786    -4.4681     1.7874 C.3     
  24 C24            1.6133    -5.8515     2.3488 C.3     
  25 O25            0.7997     3.5975     0.3814 O.3     
  26 F26           -6.2914     0.7309     0.9746 F       
  27 F27           -6.4896     5.4432     0.5032 F       
  28 H28           -1.6332    -1.3492     0.3554 H       
  29 H29           -4.0439    -0.1074     0.4578 H       
  30 H30           -2.6502     3.1713    -0.1040 H       
  31 H31            1.9119     1.9103    -0.0485 H       
  32 H32            2.2998     0.7391    -1.2007 H       
  33 H33            4.3080    -0.6743    -1.2618 H       
  34 H34            0.3468    -2.3310     1.0845 H       
  35 H35           -3.9474     5.2619    -0.0521 H       
  36 H36            0.1508     3.2124    -2.1745 H       
  37 H37            1.9150     3.3998    -2.0309 H       
  38 H38            1.2182     1.8105    -2.4270 H       
  39 H39            3.2597    -4.4557     1.0238 H       
  40 H40            1.0142    -3.7982     2.6056 H       
  41 H41            0.4380    -4.5494     1.0983 H       
  42 H42            0.7469    -6.2484     2.8778 H       
  43 H43            1.8777    -6.5214     1.5306 H       
  44 H44            2.4539    -5.7703     3.0379 H       
  45 H45           -0.0049     4.0818     0.1507 H       
@<TRIPOS>BOND
   1    1    2 1
   2    1   13 1
   3    1    5 1
   4    2    3 2
   5    2   12 1
   6    3    4 1
   7    3   28 1
   8    4    5 2
   9    4    6 1
  10    6    7 1
  11    6   29 1
  12    7    8 ar
  13    7   11 ar
  14    8    9 ar
  15    8   26 1
  16    9   10 ar
  17    9   20 1
  18   10   19 ar
  19   10   27 1
  20   11   19 ar
  21   11   30 1
  22   12   14 ar
  23   12   18 ar
  24   13   21 1
  25   13   25 1
  26   13   31 1
  27   14   15 ar
  28   14   32 1
  29   15   16 ar
  30   15   33 1
  31   16   17 ar
  32   17   18 ar
  33   17   22 1
  34   18   34 1
  35   19   35 1
  36   21   36 1
  37   21   37 1
  38   21   38 1
  39   22   23 1
  40   22   39 1
  41   23   24 1
  42   23   40 1
  43   23   41 1
  44   24   42 1
  45   24   43 1
  46   24   44 1
  47   25   45 1

#	End of record

