#	Name: ASD08150494
#	Creating user name:	WinNT
#	Creation time:	15. 06. 2019 21:16

#	Modifying user name:	WinNT
#	Modification time:	15. 06. 2019 21:16

#	Program:	/corina/corina34_cracker 3.40 0067  02.08.2006

@<TRIPOS>MOLECULE
ASD08150494
  49   53    0    0    0
SMALL
NO_CHARGES


@<TRIPOS>ATOM
   1 N1            -0.8872     2.1758    -9.0006 N.am    
   2 C2            -1.1846     1.3449   -10.0184 C.2     
   3 C3            -0.3702     0.2303   -10.3045 C.2     
   4 C4             0.7315    -0.0216    -9.5527 C.2     
   5 C5             1.0478     0.8507    -8.4812 C.ar    
   6 C6             2.1790     0.6351    -7.6711 C.ar    
   7 N7             2.4687     1.4415    -6.6836 N.ar    
   8 C8             1.7150     2.5106    -6.3856 C.ar    
   9 C9             0.5576     2.8047    -7.1479 C.ar    
  10 C10            0.2162     1.9513    -8.2231 C.ar    
  11 C11            0.1482     4.7296    -5.7659 C.ar    
  12 C12            1.2955     4.4328    -5.0168 C.ar    
  13 C13            2.0631     3.3506    -5.3150 C.ar    
  14 O14           -2.1716     1.5596   -10.7012 O.2     
  15 C15           -1.7087     3.2788    -8.7402 C.ar    
  16 C16           -1.3290     4.5450    -9.1655 C.ar    
  17 C17           -2.1422     5.6313    -8.9074 C.ar    
  18 C18           -3.3332     5.4589    -8.2265 C.ar    
  19 C19           -3.7143     4.1991    -7.8016 C.ar    
  20 C20           -2.9083     3.1082    -8.0610 C.ar    
  21 C21           -4.2177     6.6464    -7.9463 C.3     
  22 C22           -0.2217     3.9209    -6.8283 C.ar    
  23 C23           -0.6721     5.9161    -5.4208 C.ar    
  24 C24           -2.0063     5.9891    -5.8109 C.ar    
  25 N25           -2.7393     7.0416    -5.5071 N.ar    
  26 C26           -2.2434     8.0628    -4.8250 C.ar    
  27 C27           -0.9172     8.0616    -4.4007 C.ar    
  28 C28           -0.1169     6.9755    -4.6933 C.ar    
  29 N29           -3.0569     9.1495    -4.5294 N.pl3   
  30 N30           -1.7381     6.9814    -9.3599 N.pl3   
  31 O31           -2.5771     7.7621    -9.7723 O.2     
  32 O32           -0.5664     7.3117    -9.3200 O.2     
  33 H33           -0.6240    -0.4255   -11.1242 H       
  34 H34            1.3579    -0.8747    -9.7677 H       
  35 H35            2.8189    -0.2122    -7.8688 H       
  36 H36            1.5735     5.0723    -4.1921 H       
  37 H37            2.9430     3.1361    -4.7266 H       
  38 H38           -0.3987     4.6803    -9.6971 H       
  39 H39           -4.6449     4.0678    -7.2696 H       
  40 H40           -3.2066     2.1247    -7.7292 H       
  41 H41           -4.9661     6.7359    -8.7337 H       
  42 H42           -4.7152     6.5104    -6.9860 H       
  43 H43           -3.6116     7.5519    -7.9164 H       
  44 H44           -1.1050     4.1511    -7.4055 H       
  45 H45           -2.4453     5.1751    -6.3687 H       
  46 H46           -0.5205     8.8988    -3.8455 H       
  47 H47            0.9151     6.9476    -4.3763 H       
  48 H48           -3.9816     9.1570    -4.8223 H       
  49 H49           -2.7002     9.9008    -4.0302 H       
@<TRIPOS>BOND
   1    1    2 am
   2    1   10 1
   3    1   15 1
   4    2    3 1
   5    2   14 2
   6    3    4 2
   7    3   33 1
   8    4    5 1
   9    4   34 1
  10    5    6 ar
  11    5   10 ar
  12    6    7 ar
  13    6   35 1
  14    7    8 ar
  15    8    9 ar
  16    8   13 ar
  17    9   10 ar
  18    9   22 ar
  19   11   12 ar
  20   11   23 1
  21   11   22 ar
  22   12   13 ar
  23   12   36 1
  24   13   37 1
  25   15   16 ar
  26   15   20 ar
  27   16   17 ar
  28   16   38 1
  29   17   18 ar
  30   17   30 1
  31   18   19 ar
  32   18   21 1
  33   19   20 ar
  34   19   39 1
  35   20   40 1
  36   21   41 1
  37   21   42 1
  38   21   43 1
  39   22   44 1
  40   23   24 ar
  41   23   28 ar
  42   24   25 ar
  43   24   45 1
  44   25   26 ar
  45   26   27 ar
  46   26   29 1
  47   27   28 ar
  48   27   46 1
  49   28   47 1
  50   29   48 1
  51   29   49 1
  52   30   31 2
  53   30   32 2

#	End of record

