#	Name: ASD03430116
#	Creating user name:	WinNT
#	Creation time:	15. 06. 2019 20:40

#	Modifying user name:	WinNT
#	Modification time:	15. 06. 2019 20:40

#	Program:	/corina/corina34_cracker 3.40 0067  02.08.2006

@<TRIPOS>MOLECULE
ASD03430116
  40   44    0    0    0
SMALL
NO_CHARGES


@<TRIPOS>ATOM
   1 C1            -0.0167     1.3822     0.0096 C.ar    
   2 C2             0.0021    -0.0041     0.0020 C.ar    
   3 C3             1.2027    -0.6820    -0.0140 C.ar    
   4 C4             2.4085     0.0129    -0.0136 C.ar    
   5 C5             2.3859     1.4040    -0.0113 C.ar    
   6 C6             1.1814     2.0869     0.0020 C.ar    
   7 O7             3.4714    -0.8416    -0.0014 O.3     
   8 C8             1.5514    -2.1458    -0.0459 C.3     
   9 C9             3.0374    -2.1463    -0.4306 C.3     
  10 C10            0.4310    -3.8617     1.0120 C.ar    
  11 C11            1.3144    -2.8187     1.2733 C.ar    
  12 C12            0.7198    -2.9090    -1.0366 C.2     
  13 N13            0.1033    -3.8886    -0.3457 N.am    
  14 O14            0.6219    -2.6872    -2.2250 O.2     
  15 C15            1.7776    -2.5949     2.5574 C.ar    
  16 C16            1.3608    -3.4178     3.5982 C.ar    
  17 C17            0.4853    -4.4554     3.3435 C.ar    
  18 C18            0.0212    -4.6791     2.0630 C.ar    
  19 N19            2.6631    -1.5442     2.8082 N.pl3   
  20 O20           -1.2112     2.0358     0.0189 O.3     
  21 C21           -1.1861     3.4156     0.4011 C.3     
  22 C22           -0.0351     4.1000    -0.3486 C.3     
  23 O23            1.1868     3.4485     0.0122 O.3     
  24 C24           -0.8044    -4.8678    -0.9486 C.3     
  25 H25           -0.9269    -0.5549     0.0090 H       
  26 H26            3.3146     1.9551    -0.0196 H       
  27 H27            3.1583    -2.2594    -1.5079 H       
  28 H28            3.5755    -2.9286     0.1047 H       
  29 H29            1.7200    -3.2460     4.6021 H       
  30 H30            0.1617    -5.0952     4.1511 H       
  31 H31           -0.6634    -5.4929     1.8747 H       
  32 H32            2.9536    -0.9709     2.0817 H       
  33 H33            2.9875    -1.3879     3.7089 H       
  34 H34           -2.1313     3.8883     0.1342 H       
  35 H35           -1.0244     3.4965     1.4760 H       
  36 H36           -0.1931     4.0124    -1.4235 H       
  37 H37            0.0120     5.1522    -0.0681 H       
  38 H38           -1.8243    -4.4843    -0.9187 H       
  39 H39           -0.5128    -5.0442    -1.9840 H       
  40 H40           -0.7515    -5.8033    -0.3918 H       
@<TRIPOS>BOND
   1    1    2 ar
   2    1    6 ar
   3    1   20 1
   4    2    3 ar
   5    2   25 1
   6    3    4 ar
   7    3    8 1
   8    4    5 ar
   9    4    7 1
  10    5    6 ar
  11    5   26 1
  12    6   23 1
  13    7    9 1
  14    8    9 1
  15    8   11 1
  16    8   12 1
  17    9   27 1
  18    9   28 1
  19   10   11 ar
  20   10   13 1
  21   10   18 ar
  22   11   15 ar
  23   12   13 am
  24   12   14 2
  25   13   24 1
  26   15   16 ar
  27   15   19 1
  28   16   17 ar
  29   16   29 1
  30   17   18 ar
  31   17   30 1
  32   18   31 1
  33   19   32 1
  34   19   33 1
  35   20   21 1
  36   21   22 1
  37   21   34 1
  38   21   35 1
  39   22   23 1
  40   22   36 1
  41   22   37 1
  42   24   38 1
  43   24   39 1
  44   24   40 1

#	End of record

