#	Name: ASD02030739
#	Creating user name:	WinNT
#	Creation time:	15. 06. 2019 20:16

#	Modifying user name:	WinNT
#	Modification time:	15. 06. 2019 20:16

#	Program:	/corina/corina34_cracker 3.40 0067  02.08.2006

@<TRIPOS>MOLECULE
ASD02030739
  41   42    0    0    0
SMALL
NO_CHARGES


@<TRIPOS>ATOM
   1 N1            -0.0169     1.3957     0.0097 N.2     
   2 N2             0.0021    -0.0041     0.0020 N.am    
   3 C3             1.1646    -0.6797    -0.0123 C.2     
   4 N4             2.3448    -0.0325    -0.0200 N.am    
   5 C5             2.3757     1.3164    -0.0131 C.2     
   6 C6             1.1074     2.0610     0.0026 C.2     
   7 O7             1.1494    -1.8958    -0.0178 O.2     
   8 O8             3.4386     1.9089    -0.0192 O.2     
   9 C9            -1.2627    -0.7434     0.0101 C.3     
  10 C10           -1.6892    -1.0085     1.4554 C.3     
  11 N11           -2.9574    -1.7498     1.4635 N.3     
  12 C12           -3.2789    -2.2285     2.8152 C.3     
  13 C13           -4.6418    -2.9247     2.7962 C.3     
  14 N14           -4.6059    -4.0402     1.8402 N.3     
  15 C15           -4.2843    -3.5615     0.4885 C.3     
  16 C16           -2.9214    -2.8654     0.5075 C.3     
  17 C17           -5.8741    -4.7815     1.8483 C.3     
  18 C18           -5.8453    -5.8534     0.7569 C.3     
  19 C19           -6.0668    -5.4476     3.2122 C.3     
  20 O20            1.1051     3.4197     0.0094 O.3     
  21 H21            3.1737    -0.5362    -0.0303 H       
  22 H22           -2.0303    -0.1556    -0.4933 H       
  23 H23           -1.1322    -1.6923    -0.5101 H       
  24 H24           -0.9215    -1.5962     1.9587 H       
  25 H25           -1.8197    -0.0596     1.9756 H       
  26 H26           -2.5149    -2.9337     3.1426 H       
  27 H27           -3.3121    -1.3829     3.5021 H       
  28 H28           -4.8693    -3.3060     3.7916 H       
  29 H29           -5.4099    -2.2123     2.4950 H       
  30 H30           -4.2512    -4.4071    -0.1985 H       
  31 H31           -5.0483    -2.8564     0.1611 H       
  32 H32           -2.6940    -2.4840    -0.4879 H       
  33 H33           -2.1534    -3.5778     0.8087 H       
  34 H34           -6.6983    -4.0935     1.6603 H       
  35 H35           -5.0210    -6.5414     0.9449 H       
  36 H36           -6.7863    -6.4034     0.7629 H       
  37 H37           -5.7080    -5.3789    -0.2148 H       
  38 H38           -6.0873    -4.6840     3.9898 H       
  39 H39           -7.0078    -5.9976     3.2182 H       
  40 H40           -5.2425    -6.1356     3.4003 H       
  41 H41            0.2211     3.8114     0.0197 H       
@<TRIPOS>BOND
   1    1    2 1
   2    1    6 2
   3    2    3 am
   4    2    9 1
   5    3    4 am
   6    3    7 2
   7    4    5 am
   8    4   21 1
   9    5    6 1
  10    5    8 2
  11    6   20 1
  12    9   10 1
  13    9   22 1
  14    9   23 1
  15   10   11 1
  16   10   24 1
  17   10   25 1
  18   11   12 1
  19   11   16 1
  20   12   13 1
  21   12   26 1
  22   12   27 1
  23   13   14 1
  24   13   28 1
  25   13   29 1
  26   14   15 1
  27   14   17 1
  28   15   16 1
  29   15   30 1
  30   15   31 1
  31   16   32 1
  32   16   33 1
  33   17   18 1
  34   17   19 1
  35   17   34 1
  36   18   35 1
  37   18   36 1
  38   18   37 1
  39   19   38 1
  40   19   39 1
  41   19   40 1
  42   20   41 1

#	End of record

