#	Name: ASD01884779
#	Creating user name:	WinNT
#	Creation time:	15. 06. 2019 19:48

#	Modifying user name:	WinNT
#	Modification time:	15. 06. 2019 19:48

#	Program:	/corina/corina34_cracker 3.40 0067  02.08.2006

@<TRIPOS>MOLECULE
ASD01884779
  45   46    0    0    0
SMALL
NO_CHARGES


@<TRIPOS>ATOM
   1 N1            -0.0163     1.3534     0.0095 N.am    
   2 C2             0.0021    -0.0041     0.0020 C.2     
   3 C3             1.1314     2.0576     0.0023 C.2     
   4 C4             2.3671     1.3883    -0.0131 C.2     
   5 C5             2.3876     0.0245    -0.0207 C.2     
   6 C6             1.1751    -0.6792    -0.0129 C.2     
   7 C7            -1.2995     2.0602     0.0194 C.3     
   8 C8            -1.7394     2.2984     1.4653 C.3     
   9 C9            -3.0795     3.0366     1.4756 C.3     
  10 O10            1.0986     3.2777     0.0088 O.2     
  11 C11            1.1777    -2.1862    -0.0205 C.3     
  12 O12           -0.1687    -2.6649    -0.0103 O.3     
  13 C13           -0.3445    -4.0134    -0.0155 C.ar    
  14 C14           -1.6252    -4.5458    -0.0061 C.ar    
  15 C15            0.7568    -4.8562    -0.0358 C.ar    
  16 C16            0.5783    -6.2259    -0.0411 C.ar    
  17 C17           -0.7023    -6.7584    -0.0256 C.ar    
  18 C18           -1.8037    -5.9155    -0.0113 C.ar    
  19 C19           -4.1599     2.1408     0.8662 C.3     
  20 C20           -3.4588     3.3849     2.9164 C.3     
  21 O21           -0.8782    -8.1068    -0.0316 O.3     
  22 C22           -2.2244    -8.5856    -0.0147 C.3     
  23 H23           -0.9291    -0.5510     0.0084 H       
  24 H24            3.2908     1.9479    -0.0193 H       
  25 H25            3.3275    -0.5074    -0.0329 H       
  26 H26           -1.1908     3.0178    -0.4898 H       
  27 H27           -2.0496     1.4587    -0.4942 H       
  28 H28           -1.8481     1.3408     1.9744 H       
  29 H29           -0.9894     2.8999     1.9789 H       
  30 H30           -2.9944     3.9524     0.8908 H       
  31 H31            1.6838    -2.5441    -0.9171 H       
  32 H32            1.7005    -2.5531     0.8627 H       
  33 H33           -2.4828    -3.8894     0.0056 H       
  34 H34            1.7540    -4.4416    -0.0479 H       
  35 H35            1.4358    -6.8822    -0.0577 H       
  36 H36           -2.8009    -6.3301     0.0012 H       
  37 H37           -4.2450     1.2250     1.4511 H       
  38 H38           -5.1146     2.6667     0.8736 H       
  39 H39           -3.8897     1.8926    -0.1602 H       
  40 H40           -2.6891     4.0231     3.3505 H       
  41 H41           -4.4135     3.9108     2.9237 H       
  42 H42           -3.5439     2.4691     3.5013 H       
  43 H43           -2.7257    -8.2289     0.8851 H       
  44 H44           -2.7520    -8.2175    -0.8947 H       
  45 H45           -2.2226    -9.6756    -0.0218 H       
@<TRIPOS>BOND
   1    1    2 1
   2    1    3 am
   3    1    7 1
   4    2    6 2
   5    2   23 1
   6    3    4 1
   7    3   10 2
   8    4    5 2
   9    4   24 1
  10    5    6 1
  11    5   25 1
  12    6   11 1
  13    7    8 1
  14    7   26 1
  15    7   27 1
  16    8    9 1
  17    8   28 1
  18    8   29 1
  19    9   19 1
  20    9   20 1
  21    9   30 1
  22   11   12 1
  23   11   31 1
  24   11   32 1
  25   12   13 1
  26   13   14 ar
  27   13   15 ar
  28   14   18 ar
  29   14   33 1
  30   15   16 ar
  31   15   34 1
  32   16   17 ar
  33   16   35 1
  34   17   18 ar
  35   17   21 1
  36   18   36 1
  37   19   37 1
  38   19   38 1
  39   19   39 1
  40   20   40 1
  41   20   41 1
  42   20   42 1
  43   21   22 1
  44   22   43 1
  45   22   44 1
  46   22   45 1

#	End of record

