#	Name: ASD01901557
#	Creating user name:	WinNT
#	Creation time:	15. 06. 2019 19:54

#	Modifying user name:	WinNT
#	Modification time:	15. 06. 2019 19:54

#	Program:	/corina/corina34_cracker 3.40 0067  02.08.2006

@<TRIPOS>MOLECULE
ASD01901557
  31   34    0    0    0
SMALL
NO_CHARGES


@<TRIPOS>ATOM
   1 F1            -0.1032     0.3575     0.0851 F       
   2 C2            -0.0222     1.6759    -0.1988 C.ar    
   3 C3            -1.1503     2.4167    -0.3893 C.ar    
   4 N4            -1.0976     3.7125    -0.6696 N.ar    
   5 C5             0.0337     4.3706    -0.7826 C.ar    
   6 Cl6            0.0188     6.0669    -1.1512 Cl      
   7 C7             1.2560     3.7004    -0.6044 C.ar    
   8 C8             2.4886     4.3632    -0.7152 C.ar    
   9 C9             3.6457     3.6721    -0.5339 C.ar    
  10 C10            3.6295     2.3037    -0.2375 C.ar    
  11 N11            4.8331     1.6220    -0.0574 N.pl3   
  12 C12            5.9510     2.2973     0.4423 C.2     
  13 N13            5.9769     3.5300     0.8747 N.2     
  14 N14            7.2679     3.8622     1.2980 N.pl3   
  15 H15            7.5377     4.7208     1.6596 H       
  16 C16            8.0904     2.7811     1.1207 C.ar    
  17 C17            9.4432     2.5447     1.3623 C.ar    
  18 C18            9.9541     1.2993     1.0538 C.ar    
  19 C19            9.1187     0.3276     0.5183 C.ar    
  20 N20            7.8463     0.5667     0.2964 N.ar    
  21 C21            7.3016     1.7473     0.5809 C.ar    
  22 C22            2.4348     1.6225    -0.1212 C.ar    
  23 C23            1.2310     2.3144    -0.2983 C.ar    
  24 H24           -2.1140     1.9355    -0.3103 H       
  25 H25            2.5178     5.4183    -0.9440 H       
  26 H26            4.5915     4.1865    -0.6201 H       
  27 H27            4.8946     0.6797    -0.2789 H       
  28 H28           10.0748     3.3152     1.7792 H       
  29 H29           10.9977     1.0822     1.2278 H       
  30 H30            9.5237    -0.6445     0.2790 H       
  31 H31            2.4287     0.5671     0.1080 H       
@<TRIPOS>BOND
   1    1    2 1
   2    2   23 ar
   3    2    3 ar
   4    3    4 ar
   5    3   24 1
   6    4    5 ar
   7    5    6 1
   8    5    7 ar
   9    7   23 ar
  10    7    8 ar
  11    8    9 ar
  12    8   25 1
  13    9   10 ar
  14    9   26 1
  15   10   11 1
  16   10   22 ar
  17   11   12 1
  18   11   27 1
  19   12   21 1
  20   12   13 2
  21   13   14 1
  22   14   15 1
  23   14   16 1
  24   16   21 ar
  25   16   17 ar
  26   17   18 ar
  27   17   28 1
  28   18   19 ar
  29   18   29 1
  30   19   20 ar
  31   19   30 1
  32   20   21 ar
  33   22   23 ar
  34   22   31 1

#	End of record

