#	Name: ASD09116042
#	Creating user name:	WinNT
#	Creation time:	15. 06. 2019 21:20

#	Modifying user name:	WinNT
#	Modification time:	15. 06. 2019 21:20

#	Program:	/corina/corina34_cracker 3.40 0067  02.08.2006

@<TRIPOS>MOLECULE
ASD09116042
  25   26    0    0    0
SMALL
NO_CHARGES


@<TRIPOS>ATOM
   1 C1            -0.0169     1.3982     0.0097 C.2     
   2 C2             0.0021    -0.0041     0.0020 C.2     
   3 C3            -1.2778    -0.7961     0.1485 C.3     
   4 C4            -2.0690    -0.6792    -1.1577 C.3     
   5 C5            -2.9036     0.5861    -1.1677 C.3     
   6 C6            -2.1044     1.8706    -1.2279 C.3     
   7 C7            -1.3524     2.1189     0.0807 C.3     
   8 C8             1.1286     2.1074     0.0026 C.2     
   9 N9             2.3154     1.4100     0.0750 N.pl3   
  10 C10            2.3642     0.0552    -0.4848 C.3     
  11 N11            1.1160    -0.6503    -0.1954 N.2     
  12 Cl12           2.5962     0.1533    -2.2701 Cl      
  13 H13           -1.0420    -1.8424     0.3427 H       
  14 H14           -1.8670    -0.3929     0.9721 H       
  15 H15           -1.3744    -0.6577    -1.9975 H       
  16 H16           -2.7258    -1.5433    -1.2581 H       
  17 H17           -3.5691     0.5533    -2.0304 H       
  18 H18           -3.5154     0.6026    -0.2657 H       
  19 H19           -1.3865     1.8062    -2.0455 H       
  20 H20           -2.7818     2.7040    -1.4139 H       
  21 H21           -1.9341     1.7324     0.9176 H       
  22 H22           -1.1860     3.1882     0.2113 H       
  23 H23            1.1175     3.1857    -0.0582 H       
  24 H24            3.0997     1.8059     0.4862 H       
  25 H25            3.1985    -0.4893    -0.0424 H       
@<TRIPOS>BOND
   1    1    2 1
   2    1    8 2
   3    1    7 1
   4    2    3 1
   5    2   11 2
   6    3    4 1
   7    3   13 1
   8    3   14 1
   9    4    5 1
  10    4   15 1
  11    4   16 1
  12    5    6 1
  13    5   17 1
  14    5   18 1
  15    6    7 1
  16    6   19 1
  17    6   20 1
  18    7   21 1
  19    7   22 1
  20    8    9 1
  21    8   23 1
  22    9   10 1
  23    9   24 1
  24   10   11 1
  25   10   12 1
  26   10   25 1

#	End of record

