#	Name: ASD01230323
#	Creating user name:	WinNT
#	Creation time:	15. 06. 2019 19:14

#	Modifying user name:	WinNT
#	Modification time:	15. 06. 2019 19:14

#	Program:	/corina/corina34_cracker 3.40 0067  02.08.2006

@<TRIPOS>MOLECULE
ASD01230323
  40   43    0    0    0
SMALL
NO_CHARGES


@<TRIPOS>ATOM
   1 S1            -0.0204     1.6504     0.0111 S.o2    
   2 N2             0.0021    -0.0041     0.0020 N.am    
   3 C3             1.0229    -0.6873    -0.4557 C.2     
   4 N4             2.1690    -0.1518    -0.9709 N.pl3   
   5 C5             2.3936     1.2854    -1.1469 C.3     
   6 C6             1.7501     2.0749    -0.0035 C.3     
   7 C7             0.8950    -2.1591    -0.3950 C.2     
   8 C8             1.9457    -2.9421    -0.8228 C.2     
   9 C9             3.1044    -2.3190    -1.3056 C.2     
  10 C10            3.1911    -0.9788    -1.3644 C.2     
  11 C11           -0.3061    -3.5283     1.2851 C.ar    
  12 C12           -0.3447    -2.7834     0.1187 C.ar    
  13 C13           -1.5518    -2.6151    -0.5813 C.ar    
  14 C14           -2.7024    -3.1769    -0.1299 C.ar    
  15 C15           -2.6966    -3.9397     1.0523 C.ar    
  16 C16           -3.8745    -4.5297     1.5383 C.ar    
  17 C17           -3.8380    -5.2646     2.6893 C.ar    
  18 C18           -2.6418    -5.4384     3.3924 C.ar    
  19 C19           -1.4838    -4.8801     2.9494 C.ar    
  20 C20           -1.4844    -4.1171     1.7671 C.ar    
  21 O21           -4.9796    -5.8340     3.1574 O.3     
  22 C22           -4.8789    -6.5907     4.3654 C.3     
  23 O23           -0.6346     2.0065    -1.2198 O.2     
  24 O24           -0.6110     1.9931     1.2573 O.2     
  25 H25            3.4655     1.4826    -1.1611 H       
  26 H26            1.9576     1.6041    -2.0937 H       
  27 H27            1.8743     3.1443    -0.1744 H       
  28 H28            2.2074     1.7939     0.9452 H       
  29 H29            1.8772    -4.0193    -0.7862 H       
  30 H30            3.9377    -2.9226    -1.6336 H       
  31 H31            4.1024    -0.5347    -1.7370 H       
  32 H32            0.6247    -3.6587     1.8171 H       
  33 H33           -1.5643    -2.0309    -1.4896 H       
  34 H34           -3.6224    -3.0381    -0.6783 H       
  35 H35           -4.8050    -4.4028     1.0049 H       
  36 H36           -2.6378    -6.0237     4.3001 H       
  37 H37           -0.5671    -5.0221     3.5025 H       
  38 H38           -4.1789    -7.4137     4.2214 H       
  39 H39           -4.5221    -5.9466     5.1690 H       
  40 H40           -5.8591    -6.9892     4.6273 H       
@<TRIPOS>BOND
   1    1    2 am
   2    1    6 1
   3    1   23 2
   4    1   24 2
   5    2    3 2
   6    3    4 1
   7    3    7 1
   8    4    5 1
   9    4   10 1
  10    5    6 1
  11    5   25 1
  12    5   26 1
  13    6   27 1
  14    6   28 1
  15    7    8 2
  16    7   12 1
  17    8    9 1
  18    8   29 1
  19    9   10 2
  20    9   30 1
  21   10   31 1
  22   11   12 ar
  23   11   20 ar
  24   11   32 1
  25   12   13 ar
  26   13   14 ar
  27   13   33 1
  28   14   15 ar
  29   14   34 1
  30   15   16 ar
  31   15   20 ar
  32   16   17 ar
  33   16   35 1
  34   17   18 ar
  35   17   21 1
  36   18   19 ar
  37   18   36 1
  38   19   20 ar
  39   19   37 1
  40   21   22 1
  41   22   38 1
  42   22   39 1
  43   22   40 1

#	End of record

