#	Name: ASD01912256
#	Creating user name:	WinNT
#	Creation time:	15. 06. 2019 19:59

#	Modifying user name:	WinNT
#	Modification time:	15. 06. 2019 19:59

#	Program:	/corina/corina34_cracker 3.40 0067  02.08.2006

@<TRIPOS>MOLECULE
ASD01912256
  48   50    0    0    0
SMALL
NO_CHARGES


@<TRIPOS>ATOM
   1 C1            -0.0205     1.4332    -0.0137 C.3     
   2 O2            -0.7596     2.0637     1.0343 O.3     
   3 C3             1.3948     1.9508    -0.0119 C.ar    
   4 C4             2.3624     1.3113     0.7416 C.ar    
   5 C5             3.6602     1.7829     0.7455 C.ar    
   6 C6             3.9935     2.9011    -0.0086 C.ar    
   7 C7             3.0194     3.5409    -0.7641 C.ar    
   8 C8             1.7244     3.0605    -0.7679 C.ar    
   9 N9             4.6948     1.0982     1.5525 N.pl3   
  10 O10            4.3835     0.1797     2.2893 O.2     
  11 O11            5.8577     1.4532     1.4797 O.2     
  12 N12            5.3053     3.3811    -0.0066 N.3     
  13 C13            5.3740     4.7220     0.5878 C.3     
  14 C14            6.8418     5.1122     0.7954 C.3     
  15 C15            7.5655     4.9556    -0.5256 C.2     
  16 C16            7.3770     3.6586    -1.2841 C.3     
  17 C17            5.8751     3.3607    -1.3596 C.3     
  18 C18            8.3417     5.9267    -1.0047 C.2     
  19 C19            9.0149     5.7533    -2.2566 C.1     
  20 C20            9.5669     5.6111    -3.2829 C.1     
  21 C21           10.2402     5.4377    -4.5349 C.ar    
  22 C22           11.0534     6.4597    -5.0330 C.ar    
  23 C23           11.6963     6.2761    -6.2433 C.ar    
  24 C24           11.5081     5.0780    -6.9198 C.ar    
  25 C25           10.6897     4.1082    -6.3700 C.ar    
  26 N26           10.0917     4.3032    -5.2128 N.ar    
  27 C27           10.4841     2.8073    -7.1025 C.3     
  28 H28           -0.0132     0.3548     0.1448 H       
  29 H29           -0.4877     1.6563    -0.9729 H       
  30 H30           -1.6814     1.7776     1.0926 H       
  31 H31            2.1025     0.4423     1.3278 H       
  32 H32            3.2752     4.4104    -1.3514 H       
  33 H33            0.9675     3.5547    -1.3589 H       
  34 H34            4.8977     5.4403    -0.0796 H       
  35 H35            4.8587     4.7207     1.5483 H       
  36 H36            6.9032     6.1486     1.1276 H       
  37 H37            7.2938     4.4590     1.5418 H       
  38 H38            7.7829     3.7590    -2.2907 H       
  39 H39            7.8864     2.8494    -0.7608 H       
  40 H40            5.7214     2.3773    -1.8040 H       
  41 H41            5.3848     4.1173    -1.9721 H       
  42 H42            8.4631     6.8447    -0.4489 H       
  43 H43           11.1774     7.3795    -4.4808 H       
  44 H44           12.3307     7.0478    -6.6538 H       
  45 H45           11.9965     4.9051    -7.8674 H       
  46 H46           11.2424     2.0899    -6.7887 H       
  47 H47            9.4941     2.4134    -6.8726 H       
  48 H48           10.5672     2.9776    -8.1759 H       
@<TRIPOS>BOND
   1    1    2 1
   2    1    3 1
   3    1   28 1
   4    1   29 1
   5    2   30 1
   6    3    4 ar
   7    3    8 ar
   8    4    5 ar
   9    4   31 1
  10    5    6 ar
  11    5    9 1
  12    6    7 ar
  13    6   12 1
  14    7    8 ar
  15    7   32 1
  16    8   33 1
  17    9   10 2
  18    9   11 2
  19   12   13 1
  20   12   17 1
  21   13   14 1
  22   13   34 1
  23   13   35 1
  24   14   15 1
  25   14   36 1
  26   14   37 1
  27   15   16 1
  28   15   18 2
  29   16   17 1
  30   16   38 1
  31   16   39 1
  32   17   40 1
  33   17   41 1
  34   18   19 1
  35   18   42 1
  36   19   20 3
  37   20   21 1
  38   21   22 ar
  39   21   26 ar
  40   22   23 ar
  41   22   43 1
  42   23   24 ar
  43   23   44 1
  44   24   25 ar
  45   24   45 1
  46   25   26 ar
  47   25   27 1
  48   27   46 1
  49   27   47 1
  50   27   48 1

#	End of record

