#	Name: ASD04840060
#	Creating user name:	WinNT
#	Creation time:	15. 06. 2019 20:52

#	Modifying user name:	WinNT
#	Modification time:	15. 06. 2019 20:52

#	Program:	/corina/corina34_cracker 3.40 0067  02.08.2006

@<TRIPOS>MOLECULE
ASD04840060
  35   37    0    0    0
SMALL
NO_CHARGES


@<TRIPOS>ATOM
   1 C1            -0.0170     1.4012     0.0097 C.ar    
   2 C2             0.0021    -0.0041     0.0020 C.ar    
   3 C3             1.1937    -0.6612    -0.0128 C.ar    
   4 C4             2.3991     0.0385    -0.0205 C.ar    
   5 C5             2.4194     1.3992    -0.0130 C.ar    
   6 C6             1.2086     2.1126     0.0019 C.ar    
   7 C7             1.1896     3.5179     0.0095 C.ar    
   8 C8            -0.0020     4.1751     0.0243 C.ar    
   9 C9            -1.2073     3.4754     0.0321 C.ar    
  10 C10           -1.2277     2.1147     0.0193 C.ar    
  11 C11           -2.5417     1.3768     0.0227 C.3     
  12 O12           -3.6167     2.3182     0.0326 O.3     
  13 C13           -4.8762     1.8147     0.0368 C.ar    
  14 C14           -5.9804     2.6792     0.0465 C.ar    
  15 C15           -7.2728     2.1481     0.0508 C.ar    
  16 C16           -7.4542     0.7821     0.0454 C.ar    
  17 C17           -6.3608    -0.0683     0.0363 C.ar    
  18 C18           -5.0780     0.4429     0.0257 C.ar    
  19 C19           -5.7788     4.1393     0.0527 C.2     
  20 O20           -6.8426     4.9663     0.0621 O.3     
  21 O21           -4.6533     4.5972     0.0494 O.2     
  22 H22           -0.9241    -0.5595     0.0082 H       
  23 H23            1.2056    -1.7412    -0.0184 H       
  24 H24            3.3309    -0.5074    -0.0323 H       
  25 H25            3.3610     1.9281    -0.0183 H       
  26 H26            2.1158     4.0733     0.0039 H       
  27 H27           -0.0138     5.2550     0.0305 H       
  28 H28           -2.1392     4.0212     0.0443 H       
  29 H29           -2.6115     0.7550    -0.8698 H       
  30 H30           -2.6023     0.7467     0.9101 H       
  31 H31           -8.1283     2.8072     0.0586 H       
  32 H32           -8.4536     0.3726     0.0487 H       
  33 H33           -6.5125    -1.1376     0.0328 H       
  34 H34           -4.2307    -0.2268     0.0134 H       
  35 H35           -6.6604     5.9160     0.0658 H       
@<TRIPOS>BOND
   1    1    2 ar
   2    1    6 ar
   3    1   10 ar
   4    2    3 ar
   5    2   22 1
   6    3    4 ar
   7    3   23 1
   8    4    5 ar
   9    4   24 1
  10    5    6 ar
  11    5   25 1
  12    6    7 ar
  13    7    8 ar
  14    7   26 1
  15    8    9 ar
  16    8   27 1
  17    9   10 ar
  18    9   28 1
  19   10   11 1
  20   11   12 1
  21   11   29 1
  22   11   30 1
  23   12   13 1
  24   13   14 ar
  25   13   18 ar
  26   14   15 ar
  27   14   19 1
  28   15   16 ar
  29   15   31 1
  30   16   17 ar
  31   16   32 1
  32   17   18 ar
  33   17   33 1
  34   18   34 1
  35   19   20 1
  36   19   21 2
  37   20   35 1

#	End of record

