#	Name: ASD03731038
#	Creating user name:	WinNT
#	Creation time:	15. 06. 2019 20:45

#	Modifying user name:	WinNT
#	Modification time:	15. 06. 2019 20:45

#	Program:	/corina/corina34_cracker 3.40 0067  02.08.2006

@<TRIPOS>MOLECULE
ASD03731038
  52   56    0    0    0
SMALL
NO_CHARGES


@<TRIPOS>ATOM
   1 O1             1.5771     1.6251    -0.2824 O.3     
   2 C2             1.9301     0.2327    -0.3801 C.3     
   3 O3             3.1280     0.2382    -1.1787 O.3     
   4 C4             3.7064     1.4561    -0.9618 C.ar    
   5 C5             2.7521     2.3088    -0.4117 C.ar    
   6 C6             4.9915     1.9132    -1.1924 C.ar    
   7 C7             5.3404     3.2236    -0.8798 C.ar    
   8 C8             4.3762     4.0685    -0.3385 C.ar    
   9 C9             3.0957     3.6138    -0.1016 C.ar    
  10 O10            6.5391     3.8611    -1.0096 O.3     
  11 C11            5.0400     5.4048    -0.1399 C.3     
  12 C12            6.3266     5.2854    -0.9680 C.3     
  13 N13            4.0070     7.3546     0.4564 N.am    
  14 C14            4.1778     6.5425    -0.6059 C.2     
  15 C15            5.3282     5.6898     1.3043 C.ar    
  16 C16            6.0530     5.0371     2.2764 C.ar    
  17 C17            6.1343     5.5658     3.5522 C.ar    
  18 C18            5.4861     6.7510     3.8486 C.ar    
  19 C19            4.7581     7.4081     2.8787 C.ar    
  20 C20            4.6710     6.8833     1.5915 C.ar    
  21 O21            3.7244     6.7000    -1.7197 O.2     
  22 C22            3.2175     8.5883     0.4240 C.3     
  23 C23            1.7660     8.2747     0.7921 C.3     
  24 N24            0.9744     9.5118     0.7596 N.3     
  25 C25            0.8816    10.0416    -0.6073 C.3     
  26 C26            0.4175    11.4988    -0.5591 C.3     
  27 C27           -0.3610     9.2974     1.3330 C.3     
  28 C28           -0.2589     9.2471     2.8587 C.3     
  29 H29            2.1305    -0.1818     0.6079 H       
  30 H30            1.1400    -0.3286    -0.8789 H       
  31 H31            5.7291     1.2485    -1.6174 H       
  32 H32            2.3590     4.2776     0.3264 H       
  33 H33            7.1562     5.7861    -0.4689 H       
  34 H34            6.1795     5.6844    -1.9716 H       
  35 H35            6.5581     4.1115     2.0427 H       
  36 H36            6.7024     5.0542     4.3150 H       
  37 H37            5.5499     7.1639     4.8445 H       
  38 H38            4.2540     8.3327     3.1181 H       
  39 H39            3.6279     9.3012     1.1392 H       
  40 H40            3.2539     9.0167    -0.5777 H       
  41 H41            1.3556     7.5619     0.0769 H       
  42 H42            1.7296     7.8463     1.7937 H       
  43 H43            1.8597     9.9874    -1.0852 H       
  44 H44            0.1651     9.4509    -1.1781 H       
  45 H45           -0.6129    11.5404    -0.2062 H       
  46 H46            1.0574    12.0615     0.1206 H       
  47 H47            0.4775    11.9324    -1.5573 H       
  48 H48           -1.0181    10.1162     1.0396 H       
  49 H49           -0.7676     8.3555     0.9647 H       
  50 H50            0.1407    10.1918     3.2275 H       
  51 H51           -1.2487     9.0807     3.2838 H       
  52 H52            0.4040     8.4330     3.1518 H       
@<TRIPOS>BOND
   1    1    2 1
   2    1    5 1
   3    2    3 1
   4    2   29 1
   5    2   30 1
   6    3    4 1
   7    4    5 ar
   8    4    6 ar
   9    5    9 ar
  10    6    7 ar
  11    6   31 1
  12    7    8 ar
  13    7   10 1
  14    8    9 ar
  15    8   11 1
  16    9   32 1
  17   10   12 1
  18   11   12 1
  19   11   14 1
  20   11   15 1
  21   12   33 1
  22   12   34 1
  23   13   14 am
  24   13   20 1
  25   13   22 1
  26   14   21 2
  27   15   16 ar
  28   15   20 ar
  29   16   17 ar
  30   16   35 1
  31   17   18 ar
  32   17   36 1
  33   18   19 ar
  34   18   37 1
  35   19   20 ar
  36   19   38 1
  37   22   23 1
  38   22   39 1
  39   22   40 1
  40   23   24 1
  41   23   41 1
  42   23   42 1
  43   24   25 1
  44   24   27 1
  45   25   26 1
  46   25   43 1
  47   25   44 1
  48   26   45 1
  49   26   46 1
  50   26   47 1
  51   27   28 1
  52   27   48 1
  53   27   49 1
  54   28   50 1
  55   28   51 1
  56   28   52 1

#	End of record

