#	Name: ASD02038047
#	Creating user name:	WinNT
#	Creation time:	15. 06. 2019 20:16

#	Modifying user name:	WinNT
#	Modification time:	15. 06. 2019 20:16

#	Program:	/corina/corina34_cracker 3.40 0067  02.08.2006

@<TRIPOS>MOLECULE
ASD02038047
  40   42    0    0    0
SMALL
NO_CHARGES


@<TRIPOS>ATOM
   1 N1            -0.0169     1.3952     0.0097 N.am    
   2 N2             1.0000     3.4670    -0.3410 N.am    
   3 C3             1.0903     2.1274    -0.2240 C.2     
   4 C4             0.7428     6.8404    -0.8338 C.3     
   5 O5            -0.3103     7.4905    -1.5483 O.3     
   6 C6            -0.4703     8.8238    -1.3341 C.ar    
   7 C7            -1.4733     9.5170    -1.9953 C.ar    
   8 C8             0.3660     9.4894    -0.4501 C.ar    
   9 C9             0.2035    10.8437    -0.2325 C.ar    
  10 C10           -0.7956    11.5381    -0.8983 C.ar    
  11 C11           -1.6357    10.8713    -1.7777 C.ar    
  12 O12            2.1705     1.5793    -0.3292 O.2     
  13 O13           -0.9559    12.8713    -0.6837 O.3     
  14 C14            0.0604    -0.0019     0.0342 C.ar    
  15 C15            1.1890    -0.6272     0.5472 C.ar    
  16 C16            1.2627    -2.0065     0.5707 C.ar    
  17 C17            0.2145    -2.7648     0.0838 C.ar    
  18 C18           -0.9123    -2.1450    -0.4283 C.ar    
  19 C19           -0.9940    -0.7655    -0.4492 C.ar    
  20 Cl20          -2.2262    -3.1011    -1.0393 Cl      
  21 C21            1.9366     4.5741    -0.5861 C.3     
  22 C22            0.7674     5.3554    -1.2014 C.3     
  23 C23           -0.0793     4.4644    -0.2862 C.3     
  24 H24           -0.8665     1.8368     0.1649 H       
  25 H25            1.6968     7.2961    -1.0986 H       
  26 H26            0.5743     6.9467     0.2378 H       
  27 H27           -2.1270     8.9979    -2.6805 H       
  28 H28            1.1439     8.9486     0.0684 H       
  29 H29            0.8541    11.3618     0.4564 H       
  30 H30           -2.4134    11.4121    -2.2964 H       
  31 H31           -0.4415    13.4306    -1.2819 H       
  32 H32            2.0088    -0.0357     0.9272 H       
  33 H33            2.1405    -2.4929     0.9697 H       
  34 H34            0.2749    -3.8430     0.1027 H       
  35 H35           -1.8731    -0.2819    -0.8487 H       
  36 H36            2.3261     5.0235     0.3274 H       
  37 H37            2.7201     4.3291    -1.3032 H       
  38 H38            0.6163     5.1698    -2.2648 H       
  39 H39           -1.0081     4.1276    -0.7467 H       
  40 H40           -0.2292     4.8826     0.7091 H       
@<TRIPOS>BOND
   1    1   14 1
   2    1    3 am
   3    1   24 1
   4    2    3 am
   5    2   21 1
   6    2   23 1
   7    3   12 2
   8    4    5 1
   9    4   22 1
  10    4   25 1
  11    4   26 1
  12    5    6 1
  13    6    7 ar
  14    6    8 ar
  15    7   11 ar
  16    7   27 1
  17    8    9 ar
  18    8   28 1
  19    9   10 ar
  20    9   29 1
  21   10   11 ar
  22   10   13 1
  23   11   30 1
  24   13   31 1
  25   14   15 ar
  26   14   19 ar
  27   15   16 ar
  28   15   32 1
  29   16   17 ar
  30   16   33 1
  31   17   18 ar
  32   17   34 1
  33   18   19 ar
  34   18   20 1
  35   19   35 1
  36   21   22 1
  37   21   36 1
  38   21   37 1
  39   22   23 1
  40   22   38 1
  41   23   39 1
  42   23   40 1

#	End of record

