#	Name: ASD01870543
#	Creating user name:	WinNT
#	Creation time:	15. 06. 2019 19:39

#	Modifying user name:	WinNT
#	Modification time:	15. 06. 2019 19:39

#	Program:	/corina/corina34_cracker 3.40 0067  02.08.2006

@<TRIPOS>MOLECULE
ASD01870543
  43   46    0    0    0
SMALL
NO_CHARGES


@<TRIPOS>ATOM
   1 N1            -0.0159     1.3218     0.0093 N.2     
   2 C2             0.0021    -0.0041     0.0020 C.ar    
   3 C3             1.3553    -0.4303    -0.0132 C.ar    
   4 N4             1.3007     1.8031    -0.0007 N.pl3   
   5 C5            -1.0059    -1.0028     0.0063 C.ar    
   6 N6            -0.6346    -2.2735    -0.0041 N.ar    
   7 C7             0.6441    -2.6217    -0.0182 C.ar    
   8 N8             1.6184    -1.7450    -0.0228 N.ar    
   9 C9             1.8018     3.0710     0.0009 C.2     
  10 C10            2.1503     0.7299    -0.0146 C.2     
  11 C11            3.5361     0.9318    -0.0267 C.2     
  12 C12            4.0272     2.2054    -0.0246 C.2     
  13 C13            3.1363     3.2872    -0.0110 C.2     
  14 N14           -2.3433    -0.6573     0.0214 N.pl3   
  15 C15           -3.3699    -1.7024     0.0255 C.3     
  16 C16           -4.6540    -1.1536     0.6509 C.3     
  17 C17           -3.6517    -2.1463    -1.4114 C.3     
  18 C18           -5.5780    -2.3156     1.0203 C.3     
  19 C19           -4.7628    -3.4235     1.6901 C.3     
  20 C20           -4.4041    -3.4784    -1.3951 C.3     
  21 C21           -4.7350    -4.6557     0.7835 C.3     
  22 C22           -3.7608    -4.4159    -0.3716 C.3     
  23 H23            0.8938    -3.6723    -0.0258 H       
  24 H24            1.1249     3.9124     0.0116 H       
  25 H25            4.2099     0.0878    -0.0373 H       
  26 H26            5.0933     2.3780    -0.0338 H       
  27 H27            3.5174     4.2977    -0.0095 H       
  28 H28           -2.6027     0.2773     0.0292 H       
  29 H29           -3.0182    -2.5548     0.6068 H       
  30 H30           -4.4073    -0.5861     1.5483 H       
  31 H31           -5.1569    -0.5025    -0.0641 H       
  32 H32           -4.2588    -1.3922    -1.9123 H       
  33 H33           -2.7094    -2.2678    -1.9456 H       
  34 H34           -6.3468    -1.9638     1.7083 H       
  35 H35           -6.0491    -2.7060     0.1182 H       
  36 H36           -3.7444    -3.0736     1.8590 H       
  37 H37           -5.2201    -3.6848     2.6444 H       
  38 H38           -5.4453    -3.3041    -1.1240 H       
  39 H39           -4.3578    -3.9338    -2.3844 H       
  40 H40           -4.4104    -5.5228     1.3587 H       
  41 H41           -5.7334    -4.8366     0.3853 H       
  42 H42           -3.5223    -5.3663    -0.8491 H       
  43 H43           -2.8467    -3.9627     0.0121 H       
@<TRIPOS>BOND
   1    1    2 2
   2    1    4 1
   3    2    3 ar
   4    2    5 ar
   5    3   10 2
   6    3    8 ar
   7    4   10 1
   8    4    9 1
   9    5    6 ar
  10    5   14 1
  11    6    7 ar
  12    7    8 ar
  13    7   23 1
  14    9   13 2
  15    9   24 1
  16   10   11 1
  17   11   12 2
  18   11   25 1
  19   12   13 1
  20   12   26 1
  21   13   27 1
  22   14   15 1
  23   14   28 1
  24   15   16 1
  25   15   17 1
  26   15   29 1
  27   16   18 1
  28   16   30 1
  29   16   31 1
  30   17   20 1
  31   17   32 1
  32   17   33 1
  33   18   19 1
  34   18   34 1
  35   18   35 1
  36   19   21 1
  37   19   36 1
  38   19   37 1
  39   20   22 1
  40   20   38 1
  41   20   39 1
  42   21   22 1
  43   21   40 1
  44   21   41 1
  45   22   42 1
  46   22   43 1

#	End of record

