#	Name: ASD05720174
#	Creating user name:	WinNT
#	Creation time:	15. 06. 2019 21:02

#	Modifying user name:	WinNT
#	Modification time:	15. 06. 2019 21:02

#	Program:	/corina/corina34_cracker 3.40 0067  02.08.2006

@<TRIPOS>MOLECULE
ASD05720174
  37   40    0    0    0
SMALL
NO_CHARGES


@<TRIPOS>ATOM
   1 O1            -0.0161     1.3334     0.0094 O.3     
   2 C2             0.0021    -0.0041     0.0020 C.2     
   3 N3             1.2348    -0.5293    -0.0126 N.am    
   4 C4             2.2183     0.5645    -0.0161 C.3     
   5 C5             1.3508     1.8379    -0.0010 C.3     
   6 O6            -1.0069    -0.6808     0.0087 O.2     
   7 C7             3.0621     0.5136    -1.2636 C.ar    
   8 C8             4.3335     1.0693    -1.2650 C.ar    
   9 C9             5.1078     1.0208    -2.4149 C.ar    
  10 C10            4.6115     0.4197    -3.5557 C.ar    
  11 C11            3.3443    -0.1327    -3.5519 C.ar    
  12 C12            2.5728    -0.0912    -2.4049 C.ar    
  13 O13            4.8193     1.6603    -0.1418 O.3     
  14 C14            6.1357     2.2112    -0.2160 C.3     
  15 C15            3.0998    -3.5861    -0.0446 C.2     
  16 N16            2.7924    -2.2814    -0.0357 N.2     
  17 C17            1.5350    -1.8858    -0.0220 C.2     
  18 C18            0.4938    -2.8374    -0.0165 C.2     
  19 C19            0.7983    -4.1544    -0.0253 C.2     
  20 N20            2.1111    -4.5364    -0.0395 N.pl3   
  21 N21            2.7293    -5.7921    -0.0510 N.2     
  22 C22            4.0323    -5.6237    -0.0626 C.2     
  23 C23            4.3115    -4.2644    -0.0648 C.2     
  24 Br24           6.0310    -3.4778    -0.0879 Br      
  25 H25            2.8457     0.5180     0.8740 H       
  26 H26            1.5314     2.4339    -0.8956 H       
  27 H27            1.5485     2.4243     0.8964 H       
  28 H28            6.0976     1.4529    -2.4186 H       
  29 H29            5.2139     0.3818    -4.4513 H       
  30 H30            2.9579    -0.6015    -4.4448 H       
  31 H31            1.5850    -0.5278    -2.4030 H       
  32 H32            6.4003     2.6510     0.7455 H       
  33 H33            6.8463     1.4222    -0.4625 H       
  34 H34            6.1648     2.9804    -0.9878 H       
  35 H35           -0.5374    -2.5166    -0.0049 H       
  36 H36            0.0136    -4.8964    -0.0208 H       
  37 H37            4.7671    -6.4151    -0.0732 H       
@<TRIPOS>BOND
   1    1    2 1
   2    1    5 1
   3    2    3 am
   4    2    6 2
   5    3    4 1
   6    3   17 1
   7    4    5 1
   8    4    7 1
   9    4   25 1
  10    5   26 1
  11    5   27 1
  12    7    8 ar
  13    7   12 ar
  14    8    9 ar
  15    8   13 1
  16    9   10 ar
  17    9   28 1
  18   10   11 ar
  19   10   29 1
  20   11   12 ar
  21   11   30 1
  22   12   31 1
  23   13   14 1
  24   14   32 1
  25   14   33 1
  26   14   34 1
  27   15   16 1
  28   15   20 1
  29   15   23 2
  30   16   17 2
  31   17   18 1
  32   18   19 2
  33   18   35 1
  34   19   20 1
  35   19   36 1
  36   20   21 1
  37   21   22 2
  38   22   23 1
  39   22   37 1
  40   23   24 1

#	End of record

