#	Name: ASD01920066
#	Creating user name:	WinNT
#	Creation time:	15. 06. 2019 20:11

#	Modifying user name:	WinNT
#	Modification time:	15. 06. 2019 20:11

#	Program:	/corina/corina34_cracker 3.40 0067  02.08.2006

@<TRIPOS>MOLECULE
ASD01920066
  32   34    0    0    0
SMALL
NO_CHARGES


@<TRIPOS>ATOM
   1 C1             0.0755     1.2390     0.5742 C.2     
   2 N2             0.0003    -0.0018     0.0210 N.2     
   3 C3             1.2518     2.1273     0.5758 C.2     
   4 O4             1.1886     3.2193     1.1076 O.2     
   5 N5             2.3974     1.7294    -0.0122 N.am    
   6 C6             3.4782     2.6144    -0.1102 C.ar    
   7 C7             4.7785     2.1366    -0.0112 C.ar    
   8 C8             3.2503     3.9691    -0.3120 C.ar    
   9 C9             4.3174     4.8418    -0.4085 C.ar    
  10 C10            5.6166     4.3637    -0.3037 C.ar    
  11 C11            5.8441     3.0094    -0.1078 C.ar    
  12 O12            6.6666     5.2225    -0.3992 O.3     
  13 Cl13           4.0334     6.5356    -0.6614 Cl      
  14 C14            7.0005     5.9451     0.6997 C.ar    
  15 C15            7.9977     6.9079     0.6125 C.ar    
  16 C16            8.3292     7.6384     1.7404 C.ar    
  17 C17            7.6473     7.3782     2.9220 C.ar    
  18 C18            6.6660     6.4051     2.9355 C.ar    
  19 N19            6.3692     5.7293     1.8420 N.ar    
  20 Cl20           8.0238     8.2650     4.3662 Cl      
  21 C21           -1.1948    -0.4706     0.2220 C.2     
  22 O22           -1.9164     0.4343     0.8984 O.3     
  23 C23           -1.1416     1.5080     1.1208 C.2     
  24 H24            2.4733     0.8300    -0.3675 H       
  25 H25            4.9561     1.0823     0.1417 H       
  26 H26            2.2395     4.3406    -0.3938 H       
  27 H27            6.8550     2.6381    -0.0260 H       
  28 H28            8.5080     7.0840    -0.3229 H       
  29 H29            9.1007     8.3933     1.7026 H       
  30 H30            6.1324     6.1984     3.8515 H       
  31 H31           -1.5508    -1.4364    -0.1048 H       
  32 H32           -1.4272     2.4101     1.6414 H       
@<TRIPOS>BOND
   1    1    2 1
   2    1    3 1
   3    1   23 2
   4    2   21 2
   5    3    4 2
   6    3    5 am
   7    5    6 1
   8    5   24 1
   9    6    7 ar
  10    6    8 ar
  11    7   11 ar
  12    7   25 1
  13    8    9 ar
  14    8   26 1
  15    9   10 ar
  16    9   13 1
  17   10   11 ar
  18   10   12 1
  19   11   27 1
  20   12   14 1
  21   14   15 ar
  22   14   19 ar
  23   15   16 ar
  24   15   28 1
  25   16   17 ar
  26   16   29 1
  27   17   18 ar
  28   17   20 1
  29   18   19 ar
  30   18   30 1
  31   21   22 1
  32   21   31 1
  33   22   23 1
  34   23   32 1

#	End of record

