#	Name: ASD06660174
#	Creating user name:	WinNT
#	Creation time:	15. 06. 2019 21:08

#	Modifying user name:	WinNT
#	Modification time:	15. 06. 2019 21:08

#	Program:	/corina/corina34_cracker 3.40 0067  02.08.2006

@<TRIPOS>MOLECULE
ASD06660174
  54   56    0    0    0
SMALL
NO_CHARGES


@<TRIPOS>ATOM
   1 C1            -0.0184     1.5028     0.0103 C.2     
   2 C2             0.0021    -0.0041     0.0020 C.3     
   3 C3             1.4513    -0.4944    -0.0145 C.3     
   4 O4             1.0197     2.1211     0.0037 O.2     
   5 O5            -1.1898     2.1580     0.0194 O.3     
   6 C6             1.4717    -2.0012    -0.0227 C.ar    
   7 C7             1.4696    -2.6846    -1.2250 C.ar    
   8 C8             1.4883    -4.0654    -1.2362 C.ar    
   9 C9             1.5092    -4.7679    -0.0380 C.ar    
  10 C10            1.5113    -4.0783     1.1679 C.ar    
  11 C11            1.4982    -2.6973     1.1718 C.ar    
  12 N12            1.5277    -6.1645    -0.0456 N.3     
  13 C13            1.5480    -6.6981     1.3223 C.3     
  14 C14            1.7146    -8.2187     1.2758 C.3     
  15 C15            0.5538    -8.8304     0.4866 C.3     
  16 C16            0.5256    -8.2223    -0.9184 C.3     
  17 C17            0.3936    -6.7016    -0.8083 C.3     
  18 C18            0.7468   -10.3448     0.3845 C.3     
  19 N19           -0.4216   -10.9432    -0.2657 N.pl3   
  20 C20           -0.4754   -12.3173    -0.4705 C.ar    
  21 C21            0.5824   -13.1163    -0.0559 C.ar    
  22 C22            0.5146   -14.4876    -0.2672 C.ar    
  23 C23           -0.6199   -15.0073    -0.8906 C.ar    
  24 C24           -1.6294   -14.1513    -1.2741 C.ar    
  25 N25           -1.5376   -12.8523    -1.0543 N.ar    
  26 O26            1.5280   -15.3021     0.1231 O.3     
  27 C27            1.3732   -16.6992    -0.1341 C.3     
  28 H28           -0.4983    -0.3791     0.8948 H       
  29 H29           -0.5153    -0.3696    -0.8850 H       
  30 H30            1.9516    -0.1193    -0.9073 H       
  31 H31            1.9686    -0.1289     0.8726 H       
  32 H32           -1.1523     3.1243     0.0245 H       
  33 H33            1.4530    -2.1378    -2.1562 H       
  34 H34            1.4863    -4.5985    -2.1754 H       
  35 H35            1.5275    -4.6215     2.1013 H       
  36 H36            1.5046    -2.1605     2.1089 H       
  37 H37            2.3806    -6.2582     1.8714 H       
  38 H38            0.6119    -6.4504     1.8227 H       
  39 H39            2.6571    -8.4668     0.7878 H       
  40 H40            1.7139    -8.6160     2.2908 H       
  41 H41           -0.3859    -8.6155     0.9954 H       
  42 H42            1.4495    -8.4705    -1.4409 H       
  43 H43           -0.3244    -8.6223    -1.4711 H       
  44 H44           -0.5371    -6.4539    -0.2979 H       
  45 H45            0.3877    -6.2644    -1.8067 H       
  46 H46            1.6392   -10.5585    -0.2038 H       
  47 H47            0.8612   -10.7646     1.3839 H       
  48 H48           -1.1577   -10.3808    -0.5534 H       
  49 H49            1.4452   -12.6778     0.4234 H       
  50 H50           -0.7060   -16.0686    -1.0710 H       
  51 H51           -2.5098   -14.5487    -1.7571 H       
  52 H52            2.2516   -17.2345     0.2264 H       
  53 H53            0.4863   -17.0674     0.3815 H       
  54 H54            1.2636   -16.8612    -1.2064 H       
@<TRIPOS>BOND
   1    1    2 1
   2    1    4 2
   3    1    5 1
   4    2    3 1
   5    2   28 1
   6    2   29 1
   7    3    6 1
   8    3   30 1
   9    3   31 1
  10    5   32 1
  11    6    7 ar
  12    6   11 ar
  13    7    8 ar
  14    7   33 1
  15    8    9 ar
  16    8   34 1
  17    9   10 ar
  18    9   12 1
  19   10   11 ar
  20   10   35 1
  21   11   36 1
  22   12   13 1
  23   12   17 1
  24   13   14 1
  25   13   37 1
  26   13   38 1
  27   14   15 1
  28   14   39 1
  29   14   40 1
  30   15   16 1
  31   15   18 1
  32   15   41 1
  33   16   17 1
  34   16   42 1
  35   16   43 1
  36   17   44 1
  37   17   45 1
  38   18   19 1
  39   18   46 1
  40   18   47 1
  41   19   20 1
  42   19   48 1
  43   20   21 ar
  44   20   25 ar
  45   21   22 ar
  46   21   49 1
  47   22   23 ar
  48   22   26 1
  49   23   24 ar
  50   23   50 1
  51   24   25 ar
  52   24   51 1
  53   26   27 1
  54   27   52 1
  55   27   53 1
  56   27   54 1

#	End of record

