#	Name: ASD01140671
#	Creating user name:	WinNT
#	Creation time:	15. 06. 2019 19:01

#	Modifying user name:	WinNT
#	Modification time:	15. 06. 2019 19:01

#	Program:	/corina/corina34_cracker 3.40 0067  02.08.2006

@<TRIPOS>MOLECULE
ASD01140671
  38   41    0    0    0
SMALL
NO_CHARGES


@<TRIPOS>ATOM
   1 C1            -0.0184     1.5028     0.0103 C.3     
   2 C2             0.0021    -0.0041     0.0020 C.2     
   3 N3             0.0086    -0.8037    -1.0728 N.2     
   4 N4             0.0251    -2.0296    -0.6843 N.2     
   5 N5             0.0262    -2.0944     0.6065 N.pl3   
   6 C6             0.0233    -0.8189     1.0727 C.2     
   7 C7             0.0441    -0.4283     2.5323 C.3     
   8 C8             1.2707    -1.0814     3.1290 C.2     
   9 C9             2.2930    -0.4735     3.7861 C.2     
  10 N10            3.1793    -1.4437     4.1355 N.2     
  11 C11            2.7337    -2.5946     3.7218 C.2     
  12 N12            1.5365    -2.4119     3.0920 N.pl3   
  13 C13            0.7515    -3.4296     2.5334 C.ar    
  14 C14            0.7026    -4.6443     3.2167 C.ar    
  15 C15           -0.0482    -5.6931     2.7297 C.ar    
  16 C16           -0.7617    -5.5440     1.5520 C.ar    
  17 F17           -1.4983    -6.5701     1.0726 F       
  18 C18           -0.7194    -4.3446     0.8687 C.ar    
  19 C19            0.0292    -3.2794     1.3550 C.ar    
  20 C20            2.4179     0.9656     4.0663 C.2     
  21 O21            1.5515     1.7341     3.6974 O.2     
  22 O22            3.4933     1.4317     4.7322 O.3     
  23 C23            3.5502     2.8624     4.9734 C.3     
  24 C24            4.8329     3.2005     5.7357 C.3     
  25 F25            5.9423     2.8109     4.9776 F       
  26 F26            4.8877     4.5790     5.9681 F       
  27 F27            4.8416     2.5207     6.9584 F       
  28 H28            1.0042     1.8801     0.0026 H       
  29 H29           -0.5455     1.8639    -0.8728 H       
  30 H30           -0.5286     1.8543     0.9071 H       
  31 H31            0.1127     0.6553     2.6288 H       
  32 H32           -0.8540    -0.7935     3.0303 H       
  33 H33            3.2322    -3.5433     3.8552 H       
  34 H34            1.2579    -4.7646     4.1352 H       
  35 H35           -0.0797    -6.6301     3.2658 H       
  36 H36           -1.2767    -4.2310    -0.0494 H       
  37 H37            3.5434     3.3920     4.0207 H       
  38 H38            2.6858     3.1659     5.5640 H       
@<TRIPOS>BOND
   1    1    2 1
   2    1   28 1
   3    1   29 1
   4    1   30 1
   5    2    6 2
   6    2    3 1
   7    3    4 2
   8    4    5 1
   9    5   19 1
  10    5    6 1
  11    6    7 1
  12    7    8 1
  13    7   31 1
  14    7   32 1
  15    8   12 1
  16    8    9 2
  17    9   10 1
  18    9   20 1
  19   10   11 2
  20   11   12 1
  21   11   33 1
  22   12   13 1
  23   13   19 ar
  24   13   14 ar
  25   14   15 ar
  26   14   34 1
  27   15   16 ar
  28   15   35 1
  29   16   17 1
  30   16   18 ar
  31   18   19 ar
  32   18   36 1
  33   20   21 2
  34   20   22 1
  35   22   23 1
  36   23   24 1
  37   23   37 1
  38   23   38 1
  39   24   25 1
  40   24   26 1
  41   24   27 1

#	End of record

