#	Name: ASD01912029
#	Creating user name:	WinNT
#	Creation time:	15. 06. 2019 19:58

#	Modifying user name:	WinNT
#	Modification time:	15. 06. 2019 19:58

#	Program:	/corina/corina34_cracker 3.40 0067  02.08.2006

@<TRIPOS>MOLECULE
ASD01912029
  39   42    0    0    0
SMALL
NO_CHARGES


@<TRIPOS>ATOM
   1 C1            -0.0167     1.3839     0.0097 C.ar    
   2 C2             0.0021    -0.0041     0.0020 C.ar    
   3 C3             1.2146    -0.6863    -0.0132 C.ar    
   4 C4             2.4020     0.0159    -0.0203 C.ar    
   5 C5             2.3849     1.4119    -0.0126 C.ar    
   6 C6             1.1664     2.0916     0.0022 C.ar    
   7 C7             3.6562     2.1690    -0.0197 C.ar    
   8 N8             4.7235     1.7065     0.6249 N.ar    
   9 C9             5.8624     2.3811     0.6202 C.ar    
  10 N10            5.9947     3.5365    -0.0184 N.ar    
  11 C11            4.9863     4.0686    -0.6839 C.ar    
  12 C12            3.7604     3.3934    -0.7162 C.ar    
  13 C13            2.6406     3.9341    -1.4262 C.1     
  14 N14            1.7522     4.3631    -1.9895 N.1     
  15 N15            6.9497     1.8649     1.3037 N.pl3   
  16 C16            8.1472     2.5501     1.3130 C.2     
  17 O17            9.2633     2.1421     1.9423 O.3     
  18 C18           10.2292     3.0650     1.7297 C.ar    
  19 C19            9.6514     4.0665     0.9349 C.ar    
  20 N20            8.3641     3.6884     0.7064 N.2     
  21 C21           11.5531     3.1755     2.1229 C.ar    
  22 C22           12.2980     4.2696     1.7316 C.ar    
  23 C23           11.7308     5.2618     0.9466 C.ar    
  24 C24           10.4160     5.1675     0.5463 C.ar    
  25 F25            1.2291    -2.0372    -0.0206 F       
  26 O26           -1.1658    -0.6978     0.0099 O.3     
  27 C27           -2.3737     0.0656     0.0259 C.3     
  28 H28           -0.9598     1.9103     0.0170 H       
  29 H29            3.3433    -0.5135    -0.0314 H       
  30 H30            1.1502     3.1715     0.0077 H       
  31 H31            5.1067     5.0098    -1.1998 H       
  32 H32            6.8698     1.0215     1.7760 H       
  33 H33           12.0015     2.4069     2.7349 H       
  34 H34           13.3298     4.3536     2.0393 H       
  35 H35           12.3233     6.1137     0.6471 H       
  36 H36            9.9784     5.9430    -0.0648 H       
  37 H37           -2.3975     0.6893     0.9196 H       
  38 H38           -2.4152     0.6989    -0.8603 H       
  39 H39           -3.2299    -0.6090     0.0308 H       
@<TRIPOS>BOND
   1    1    2 ar
   2    1    6 ar
   3    1   28 1
   4    2    3 ar
   5    2   26 1
   6    3    4 ar
   7    3   25 1
   8    4    5 ar
   9    4   29 1
  10    5    6 ar
  11    5    7 1
  12    6   30 1
  13    7    8 ar
  14    7   12 ar
  15    8    9 ar
  16    9   10 ar
  17    9   15 1
  18   10   11 ar
  19   11   12 ar
  20   11   31 1
  21   12   13 1
  22   13   14 3
  23   15   16 1
  24   15   32 1
  25   16   17 1
  26   16   20 2
  27   17   18 1
  28   18   19 ar
  29   18   21 ar
  30   19   20 1
  31   19   24 ar
  32   21   22 ar
  33   21   33 1
  34   22   23 ar
  35   22   34 1
  36   23   24 ar
  37   23   35 1
  38   24   36 1
  39   26   27 1
  40   27   37 1
  41   27   38 1
  42   27   39 1

#	End of record

