#	Name: ASD08070218
#	Creating user name:	WinNT
#	Creation time:	15. 06. 2019 21:14

#	Modifying user name:	WinNT
#	Modification time:	15. 06. 2019 21:14

#	Program:	/corina/corina34_cracker 3.40 0067  02.08.2006

@<TRIPOS>MOLECULE
ASD08070218
  38   39    0    0    0
SMALL
NO_CHARGES


@<TRIPOS>ATOM
   1 C1            -0.0167     1.3799     0.0096 C.ar    
   2 C2             0.0021    -0.0041     0.0020 C.ar    
   3 C3             1.2072    -0.6811    -0.0131 C.ar    
   4 C4             2.4063     0.0358    -0.0207 C.ar    
   5 C5             2.3779     1.4314    -0.0129 C.ar    
   6 C6             1.1683     2.0943     0.0022 C.ar    
   7 C7             3.6989    -0.6801    -0.0364 C.2     
   8 N8             4.8539     0.0145    -0.0436 N.am    
   9 O9             3.7205    -1.8955    -0.0427 O.2     
  10 C10            6.5072    -1.0451    -1.5015 C.3     
  11 C11            6.1354    -0.6953    -0.0592 C.3     
  12 C12            7.3393     1.4831    -0.2772 C.3     
  13 C13            7.2206     0.1982     0.5449 C.3     
  14 Cl14          -1.4902    -0.8911     0.0121 Cl      
  15 Cl15           1.2305    -2.4169    -0.0221 Cl      
  16 C16            6.6259     0.2398    -2.3236 C.3     
  17 C17            8.4245     2.3766     0.3268 C.3     
  18 C18            7.7111     1.1333    -1.7195 C.3     
  19 C19            6.8488     0.5480     1.9872 C.3     
  20 H20           -0.9606     1.9047     0.0169 H       
  21 H21            3.3014     1.9913    -0.0184 H       
  22 H22            1.1460     3.1740     0.0078 H       
  23 H23            4.8367     0.9843    -0.0386 H       
  24 H24            7.4607    -1.5732    -1.5131 H       
  25 H25            5.7341    -1.6817    -1.9318 H       
  26 H26            6.0509    -1.6107     0.5265 H       
  27 H27            6.3858     2.0112    -0.2656 H       
  28 H28            8.1741    -0.3299     0.5333 H       
  29 H29            6.8907    -0.0094    -3.3511 H       
  30 H30            5.6724     0.7679    -2.3120 H       
  31 H31            9.3780     1.8485     0.3153 H       
  32 H32            8.5090     3.2920    -0.2588 H       
  33 H33            8.1596     2.6258     1.3544 H       
  34 H34            7.7956     2.0487    -2.3052 H       
  35 H35            8.6645     0.6052    -1.7311 H       
  36 H36            5.8954     1.0761     1.9988 H       
  37 H37            6.7643    -0.3674     2.5728 H       
  38 H38            7.6220     1.1846     2.4175 H       
@<TRIPOS>BOND
   1    1    2 ar
   2    1    6 ar
   3    1   20 1
   4    2    3 ar
   5    2   14 1
   6    3    4 ar
   7    3   15 1
   8    4    5 ar
   9    4    7 1
  10    5    6 ar
  11    5   21 1
  12    6   22 1
  13    7    8 am
  14    7    9 2
  15    8   11 1
  16    8   23 1
  17   10   11 1
  18   10   16 1
  19   10   24 1
  20   10   25 1
  21   11   13 1
  22   11   26 1
  23   12   13 1
  24   12   17 1
  25   12   18 1
  26   12   27 1
  27   13   19 1
  28   13   28 1
  29   16   18 1
  30   16   29 1
  31   16   30 1
  32   17   31 1
  33   17   32 1
  34   17   33 1
  35   18   34 1
  36   18   35 1
  37   19   36 1
  38   19   37 1
  39   19   38 1

#	End of record

