#	Name: ASD01885262
#	Creating user name:	WinNT
#	Creation time:	15. 06. 2019 19:49

#	Modifying user name:	WinNT
#	Modification time:	15. 06. 2019 19:49

#	Program:	/corina/corina34_cracker 3.40 0067  02.08.2006

@<TRIPOS>MOLECULE
ASD01885262
  53   58    0    0    0
SMALL
NO_CHARGES


@<TRIPOS>ATOM
   1 C1             0.0832     1.3295     0.5652 C.2     
   2 C2             1.1002    -0.5718    -0.4618 C.2     
   3 C3             2.2971     0.1585    -0.5588 C.2     
   4 C4             2.3610     1.4272    -0.1033 C.2     
   5 N5             1.2667     2.0178     0.4567 N.pl3   
   6 C6             1.0323     3.2477     0.9894 C.2     
   7 N7            -0.2143     3.2741     1.3849 N.2     
   8 N8            -0.7856     2.1485     1.1351 N.2     
   9 C9             2.0274     4.3736     1.1038 C.3     
  10 C10            1.0348    -1.9882    -0.9722 C.3     
  11 C11            1.9636     5.2405    -0.1553 C.3     
  12 N12            0.7308    -1.9773    -2.4093 N.3     
  13 C13            0.0010     0.0049     0.0945 C.2     
  14 C14            2.8184     6.5091    -0.1837 C.3     
  15 C15            3.2136     5.3011    -1.0354 C.3     
  16 C16           -1.2897    -0.7651     0.2062 C.3     
  17 C17            0.8932    -3.3315    -2.9982 C.3     
  18 C18            1.0801    -3.0787    -4.5096 C.3     
  19 C19            1.6135    -1.6348    -4.6115 C.3     
  20 C20            1.7041    -1.1367    -3.1531 C.3     
  21 C21            2.4953    -2.8140    -5.0272 C.3     
  22 H22            1.2412    -0.9368    -5.3614 H       
  23 H23            0.3107    -3.4555    -5.1836 H       
  24 C24            2.7440    -3.0099    -6.5005 C.ar    
  25 C25            3.6796    -3.9339    -6.9267 C.ar    
  26 C26            3.9078    -4.1136    -8.2782 C.ar    
  27 C27            3.2000    -3.3695    -9.2035 C.ar    
  28 C28            2.2637    -2.4460    -8.7774 C.ar    
  29 C29            2.0325    -2.2695    -7.4260 C.ar    
  30 F30           -1.2102    -1.6548     1.2828 F       
  31 F31           -2.3477     0.1261     0.4147 F       
  32 F32           -1.5092    -1.4813    -0.9754 F       
  33 H33            3.1706    -0.2983    -1.0000 H       
  34 H34            3.2860     1.9791    -0.1826 H       
  35 H35            1.7890     4.9820     1.9762 H       
  36 H36            3.0310     3.9620     1.2111 H       
  37 H37            1.9944    -2.4783    -0.8076 H       
  38 H38            0.2537    -2.5306    -0.4396 H       
  39 H39            0.9947     5.2752    -0.6536 H       
  40 H40            2.4121     7.3783    -0.7009 H       
  41 H41            3.4263     6.7261     0.6947 H       
  42 H42            4.0815     4.7234    -0.7174 H       
  43 H43            3.0674     5.3756    -2.1130 H       
  44 H44            1.7731    -3.8233    -2.5834 H       
  45 H45            0.0015    -3.9327    -2.8207 H       
  46 H46            1.4228    -0.0854    -3.0923 H       
  47 H47            2.7108    -1.2851    -2.7626 H       
  48 H48            3.3267    -3.0749    -4.3723 H       
  49 H49            4.2326    -4.5153    -6.2038 H       
  50 H50            4.6393    -4.8350    -8.6112 H       
  51 H51            3.3788    -3.5093   -10.2594 H       
  52 H52            1.7110    -1.8645    -9.5003 H       
  53 H53            1.2984    -1.5507    -7.0931 H       
@<TRIPOS>BOND
   1    1   13 1
   2    1    5 1
   3    1    8 2
   4    2    3 1
   5    2   10 1
   6    2   13 2
   7    3    4 2
   8    3   33 1
   9    4    5 1
  10    4   34 1
  11    5    6 1
  12    6    7 2
  13    6    9 1
  14    7    8 1
  15    9   11 1
  16    9   35 1
  17    9   36 1
  18   10   12 1
  19   10   37 1
  20   10   38 1
  21   11   14 1
  22   11   15 1
  23   11   39 1
  24   12   17 1
  25   12   20 1
  26   13   16 1
  27   14   15 1
  28   14   40 1
  29   14   41 1
  30   15   42 1
  31   15   43 1
  32   16   30 1
  33   16   31 1
  34   16   32 1
  35   17   18 1
  36   17   44 1
  37   17   45 1
  38   18   19 1
  39   18   23 1
  40   18   21 1
  41   19   20 1
  42   19   22 1
  43   19   21 1
  44   20   46 1
  45   20   47 1
  46   21   24 1
  47   21   48 1
  48   24   25 ar
  49   24   29 ar
  50   25   26 ar
  51   25   49 1
  52   26   27 ar
  53   26   50 1
  54   27   28 ar
  55   27   51 1
  56   28   29 ar
  57   28   52 1
  58   29   53 1

#	End of record

