#	Name: ASD03082277
#	Creating user name:	WinNT
#	Creation time:	15. 06. 2019 20:27

#	Modifying user name:	WinNT
#	Modification time:	15. 06. 2019 20:27

#	Program:	/corina/corina34_cracker 3.40 0067  02.08.2006

@<TRIPOS>MOLECULE
ASD03082277
  53   56    0    0    0
SMALL
NO_CHARGES


@<TRIPOS>ATOM
   1 N1             0.1768     1.4128    -0.5587 N.am    
   2 N2             0.0618     0.0219    -0.4015 N.2     
   3 C3             1.1258    -0.3800     0.2525 C.2     
   4 N4             1.9051     0.6723     0.5175 N.2     
   5 C5             1.3532     1.7675     0.0373 C.2     
   6 N6             1.3999    -1.6982     0.6145 N.pl3   
   7 C7             0.4499    -2.6974     0.3864 C.ar    
   8 C8             0.8530    -4.0164     0.2268 C.ar    
   9 C9            -0.0920    -5.0043     0.0007 C.ar    
  10 C10           -1.4386    -4.6735    -0.0658 C.ar    
  11 C11           -1.8380    -3.3602     0.0928 C.ar    
  12 C12           -0.8997    -2.3731     0.3246 C.ar    
  13 O13            0.2992    -6.2962    -0.1564 O.3     
  14 C14            1.9075     3.1344     0.1269 C.ar    
  15 C15           -0.6956     2.2320    -1.1785 C.2     
  16 C16            1.0601     4.2188     0.3598 C.ar    
  17 C17            1.5788     5.4941     0.4427 C.ar    
  18 C18            2.9422     5.7025     0.2952 C.ar    
  19 C19            3.7939     4.6241     0.0630 C.ar    
  20 C20            3.2810     3.3432    -0.0155 C.ar    
  21 N21           -1.7825     1.7206    -1.7899 N.am    
  22 C22           -2.7308     2.6111    -2.4636 C.3     
  23 O23           -0.5023     3.4316    -1.1861 O.2     
  24 O24            5.1301     4.8316    -0.0812 O.3     
  25 C25            5.9437     3.6807    -0.3171 C.3     
  26 C26           -4.1719     2.1211    -2.6189 C.3     
  27 C27           -3.2490     2.1819    -3.8377 C.3     
  28 O28            3.4485     6.9611     0.3768 O.3     
  29 C29            2.5192     8.0199     0.6160 C.3     
  30 C30           -0.7286    -7.2620    -0.3863 C.3     
  31 F31           -1.4229    -6.9346    -1.5559 F       
  32 F32           -0.1545    -8.5302    -0.5243 F       
  33 F33           -1.6148    -7.2665     0.6962 F       
  34 H34            2.2499    -1.9217     1.0248 H       
  35 H35            1.9011    -4.2719     0.2784 H       
  36 H36           -2.1750    -5.4436    -0.2420 H       
  37 H37           -2.8863    -3.1056     0.0400 H       
  38 H38           -1.2149    -1.3482     0.4530 H       
  39 H39           -0.0019     4.0593     0.4746 H       
  40 H40            0.9220     6.3323     0.6225 H       
  41 H41            3.9399     2.5065    -0.1950 H       
  42 H42           -1.9367     0.7630    -1.7838 H       
  43 H43           -2.5771     3.6768    -2.2937 H       
  44 H44            5.8434     2.9875     0.5182 H       
  45 H45            5.6225     3.1909    -1.2363 H       
  46 H46            6.9857     3.9858    -0.4129 H       
  47 H47           -4.4144     1.1362    -2.2198 H       
  48 H48           -4.9662     2.8645    -2.5515 H       
  49 H49           -3.4362     2.9652    -4.5722 H       
  50 H50           -2.8843     1.2369    -4.2404 H       
  51 H51            1.7874     8.0504    -0.1912 H       
  52 H52            2.0083     7.8478     1.5633 H       
  53 H53            3.0532     8.9693     0.6585 H       
@<TRIPOS>BOND
   1    1    2 1
   2    1    5 1
   3    1   15 am
   4    2    3 2
   5    3    4 1
   6    3    6 1
   7    4    5 2
   8    5   14 1
   9    6    7 1
  10    6   34 1
  11    7    8 ar
  12    7   12 ar
  13    8    9 ar
  14    8   35 1
  15    9   10 ar
  16    9   13 1
  17   10   11 ar
  18   10   36 1
  19   11   12 ar
  20   11   37 1
  21   12   38 1
  22   13   30 1
  23   14   16 ar
  24   14   20 ar
  25   15   21 am
  26   15   23 2
  27   16   17 ar
  28   16   39 1
  29   17   18 ar
  30   17   40 1
  31   18   19 ar
  32   18   28 1
  33   19   20 ar
  34   19   24 1
  35   20   41 1
  36   21   22 1
  37   21   42 1
  38   22   26 1
  39   22   27 1
  40   22   43 1
  41   24   25 1
  42   25   44 1
  43   25   45 1
  44   25   46 1
  45   26   27 1
  46   26   47 1
  47   26   48 1
  48   27   49 1
  49   27   50 1
  50   28   29 1
  51   29   51 1
  52   29   52 1
  53   29   53 1
  54   30   31 1
  55   30   32 1
  56   30   33 1

#	End of record

