#	Name: ASD01180172
#	Creating user name:	WinNT
#	Creation time:	15. 06. 2019 19:06

#	Modifying user name:	WinNT
#	Modification time:	15. 06. 2019 19:06

#	Program:	/corina/corina34_cracker 3.40 0067  02.08.2006

@<TRIPOS>MOLECULE
ASD01180172
  66   68    0    0    0
SMALL
NO_CHARGES


@<TRIPOS>ATOM
   1 C1            -1.2046     1.4875     0.4153 C.2     
   2 C2            -1.0178    -0.0065     0.3499 C.3     
   3 C3             0.4704    -0.3283     0.1998 C.3     
   4 O4            -0.2458     2.2197     0.3487 O.2     
   5 O5            -2.4367     2.0049     0.5420 O.3     
   6 C6             1.8886    -2.2999     0.0033 C.2     
   7 O7             2.8534    -1.5631    -0.0637 O.2     
   8 N8             0.6520    -1.7806     0.1361 N.am    
   9 C9             2.4040    -6.4212    -0.1764 C.ar    
  10 N10            3.4699    -5.6350    -0.2517 N.ar    
  11 C11            3.3486    -4.3220    -0.1987 C.ar    
  12 C12            2.0715    -3.7627    -0.0608 C.ar    
  13 C13            0.9726    -4.6285     0.0151 C.ar    
  14 N14            1.1783    -5.9305    -0.0455 N.ar    
  15 N15            2.5744    -7.7884    -0.2417 N.pl3   
  16 C16            1.4263    -8.6794    -0.0567 C.3     
  17 C17            0.7265    -8.8950    -1.4001 C.3     
  18 C18           -0.5427    -9.7226    -1.1869 C.3     
  19 C19           -1.5432    -8.9169    -0.3557 C.3     
  20 C20            2.7714   -12.4402     1.4685 C.ar    
  21 C21            1.5942   -11.8709     1.9502 C.ar    
  22 C22            1.1648   -10.6568     1.4544 C.ar    
  23 C23            1.9006   -10.0048     0.4811 C.ar    
  24 C24            3.0697   -10.5652    -0.0005 C.ar    
  25 C25            3.5085   -11.7793     0.4883 C.ar    
  26 C26            3.2414   -13.7427     2.0021 C.ar    
  27 C27            3.5965   -14.7689     1.1290 C.ar    
  28 C28            4.0329   -15.9783     1.6308 C.ar    
  29 C29            4.1177   -16.1727     2.9977 C.ar    
  30 C30            3.7660   -15.1576     3.8689 C.ar    
  31 C31            3.3346   -13.9419     3.3780 C.ar    
  32 C32            4.5945   -17.4956     3.5396 C.3     
  33 F33            5.9846   -17.4630     3.6931 F       
  34 F34            3.9938   -17.7351     4.7802 F       
  35 F35            4.2476   -18.5169     2.6486 F       
  36 C36            0.7913   -12.5802     3.0101 C.3     
  37 C37           -1.1635   -10.0627    -2.5433 C.3     
  38 H38           -1.3972    -0.4605     1.2653 H       
  39 H39           -1.5636    -0.4037    -0.5060 H       
  40 H40            0.8498     0.1258    -0.7157 H       
  41 H41            1.0161     0.0690     1.0556 H       
  42 H42           -2.5064     2.9686     0.5797 H       
  43 H43           -0.1178    -2.3684     0.1896 H       
  44 H44            4.2208    -3.6881    -0.2603 H       
  45 H45           -0.0280    -4.2361     0.1221 H       
  46 H46            3.4545    -8.1599    -0.4101 H       
  47 H47            0.7276    -8.2300     0.6490 H       
  48 H48            0.4624    -7.9294    -1.8313 H       
  49 H49            1.3961    -9.4248    -2.0777 H       
  50 H50           -0.2917   -10.6437    -0.6609 H       
  51 H51           -2.4419    -9.5117    -0.1922 H       
  52 H52           -1.0958    -8.6629     0.6053 H       
  53 H53           -1.8045    -8.0024    -0.8880 H       
  54 H54            0.2524   -10.2148     1.8268 H       
  55 H55            3.6403   -10.0520    -0.7604 H       
  56 H56            4.4218   -12.2159     0.1117 H       
  57 H57            3.5300   -14.6183     0.0616 H       
  58 H58            4.3084   -16.7744     0.9550 H       
  59 H59            3.8338   -15.3149     4.9353 H       
  60 H60            3.0652   -13.1483     4.0591 H       
  61 H61            1.1320   -12.2643     3.9961 H       
  62 H62           -0.2637   -12.3321     2.8935 H       
  63 H63            0.9248   -13.6570     2.9072 H       
  64 H64           -0.4507   -10.6367    -3.1354 H       
  65 H65           -2.0676   -10.6523    -2.3914 H       
  66 H66           -1.4144    -9.1416    -3.0693 H       
@<TRIPOS>BOND
   1    1    2 1
   2    1    4 2
   3    1    5 1
   4    2    3 1
   5    2   38 1
   6    2   39 1
   7    3    8 1
   8    3   40 1
   9    3   41 1
  10    5   42 1
  11    6    7 2
  12    6    8 am
  13    6   12 1
  14    8   43 1
  15    9   10 ar
  16    9   14 ar
  17    9   15 1
  18   10   11 ar
  19   11   12 ar
  20   11   44 1
  21   12   13 ar
  22   13   14 ar
  23   13   45 1
  24   15   16 1
  25   15   46 1
  26   16   17 1
  27   16   23 1
  28   16   47 1
  29   17   18 1
  30   17   48 1
  31   17   49 1
  32   18   19 1
  33   18   37 1
  34   18   50 1
  35   19   51 1
  36   19   52 1
  37   19   53 1
  38   20   21 ar
  39   20   25 ar
  40   20   26 1
  41   21   22 ar
  42   21   36 1
  43   22   23 ar
  44   22   54 1
  45   23   24 ar
  46   24   25 ar
  47   24   55 1
  48   25   56 1
  49   26   27 ar
  50   26   31 ar
  51   27   28 ar
  52   27   57 1
  53   28   29 ar
  54   28   58 1
  55   29   30 ar
  56   29   32 1
  57   30   31 ar
  58   30   59 1
  59   31   60 1
  60   32   33 1
  61   32   34 1
  62   32   35 1
  63   36   61 1
  64   36   62 1
  65   36   63 1
  66   37   64 1
  67   37   65 1
  68   37   66 1

#	End of record

