#	Name: ASD05430017
#	Creating user name:	WinNT
#	Creation time:	15. 06. 2019 20:59

#	Modifying user name:	WinNT
#	Modification time:	15. 06. 2019 20:59

#	Program:	/corina/corina34_cracker 3.40 0067  02.08.2006

@<TRIPOS>MOLECULE
ASD05430017
  60   65    0    0    0
SMALL
NO_CHARGES


@<TRIPOS>ATOM
   1 C1            -0.0691     1.2212    -0.3118 C.ar    
   2 C2            -0.0158    -0.0181     0.3254 C.ar    
   3 C3            -1.1672    -0.5734     0.8689 C.ar    
   4 C4            -2.3674     0.0976     0.7811 C.ar    
   5 C5            -2.4283     1.3412     0.1439 C.ar    
   6 C6            -1.2684     1.9025    -0.3986 C.ar    
   7 C7            -4.8945    -0.1388    -0.2329 C.3     
   8 C8            -4.8619     1.3704    -0.0465 C.2     
   9 C9            -3.7098     2.0594     0.0486 C.2     
  10 C10           -5.9793    -0.4730    -1.2576 C.3     
  11 C11           -7.3803    -0.0251    -0.8395 C.3     
  12 N12           -7.3336     1.3788    -0.4379 N.pl3   
  13 C13           -6.1859     2.0281     0.0234 C.2     
  14 C14           -8.3999     2.3820    -0.4412 C.3     
  15 O15           -7.8849     3.4130     0.4273 O.3     
  16 N16           -6.4827     3.1919     0.4969 N.2     
  17 C17           -8.6207     2.9192    -1.8318 C.2     
  18 C18           -9.0480     4.1486    -2.1218 C.2     
  19 C19           -9.6948     1.7959     0.1250 C.3     
  20 O20            1.0598     1.7617    -0.8426 O.3     
  21 C21            0.9319     3.0339    -1.4806 C.3     
  22 N22            1.2022    -0.7052     0.4172 N.pl3   
  23 C23            2.0643    -0.9598    -0.6011 C.2     
  24 C24            1.7514    -1.2421     1.5527 C.2     
  25 C25            2.9190    -1.8075     1.1916 C.2     
  26 N26            3.0849    -1.6206    -0.1262 N.2     
  27 C27            3.8763    -2.5223     2.1102 C.3     
  28 C28           -5.6110    -0.0664    -2.6912 C.3     
  29 N29           -6.1782    -1.3717    -3.0984 N.3     
  30 C30           -5.9257    -1.9264    -1.7494 C.3     
  31 C31           -9.1764     4.4181    -3.4740 C.2     
  32 C32           -8.8528     3.4056    -4.2817 C.2     
  33 S33           -8.3469     2.0227    -3.3199 S.3     
  34 Cl34          -8.9147     3.4498    -6.0161 Cl      
  35 H35           -1.1216    -1.5336     1.3612 H       
  36 H36           -3.2612    -0.3368     1.2039 H       
  37 H37           -1.3110     2.8627    -0.8911 H       
  38 H38           -3.9268    -0.4851    -0.5961 H       
  39 H39           -5.1250    -0.6214     0.7169 H       
  40 H40           -3.7253     3.1393     0.0551 H       
  41 H41           -8.0658    -0.1414    -1.6790 H       
  42 H42           -7.7223    -0.6326    -0.0016 H       
  43 H43           -9.2769     4.8788    -1.3597 H       
  44 H44           -9.5260     1.4642     1.1495 H       
  45 H45          -10.4740     2.5579     0.1135 H       
  46 H46          -10.0068     0.9479    -0.4847 H       
  47 H47            0.5670     3.7664    -0.7606 H       
  48 H48            1.9040     3.3498    -1.8594 H       
  49 H49            0.2272     2.9560    -2.3085 H       
  50 H50            1.9281    -0.6651    -1.6311 H       
  51 H51            1.3289    -1.2163     2.5463 H       
  52 H52            3.6210    -3.5813     2.1483 H       
  53 H53            4.8935    -2.4070     1.7359 H       
  54 H54            3.8067    -2.0956     3.1108 H       
  55 H55           -6.1716     0.7915    -3.0625 H       
  56 H56           -4.5378     0.0189    -2.8618 H       
  57 H57           -7.1680    -1.2955    -3.2786 H       
  58 H58           -4.9456    -2.3910    -1.6415 H       
  59 H59           -6.7368    -2.5486    -1.3711 H       
  60 H60           -9.5131     5.3742    -3.8466 H       
@<TRIPOS>BOND
   1    1    2 ar
   2    1   20 1
   3    1    6 ar
   4    2    3 ar
   5    2   22 1
   6    3    4 ar
   7    3   35 1
   8    4    5 ar
   9    4   36 1
  10    5    6 ar
  11    5    9 1
  12    6   37 1
  13    7    8 1
  14    7   10 1
  15    7   38 1
  16    7   39 1
  17    8    9 2
  18    8   13 1
  19    9   40 1
  20   10   11 1
  21   10   28 1
  22   10   30 1
  23   11   12 1
  24   11   41 1
  25   11   42 1
  26   12   13 1
  27   12   14 1
  28   13   16 2
  29   14   15 1
  30   14   17 1
  31   14   19 1
  32   15   16 1
  33   17   18 2
  34   17   33 1
  35   18   31 1
  36   18   43 1
  37   19   44 1
  38   19   45 1
  39   19   46 1
  40   20   21 1
  41   21   47 1
  42   21   48 1
  43   21   49 1
  44   22   23 1
  45   22   24 1
  46   23   26 2
  47   23   50 1
  48   24   25 2
  49   24   51 1
  50   25   26 1
  51   25   27 1
  52   27   52 1
  53   27   53 1
  54   27   54 1
  55   28   29 1
  56   28   55 1
  57   28   56 1
  58   29   30 1
  59   29   57 1
  60   30   58 1
  61   30   59 1
  62   31   32 2
  63   31   60 1
  64   32   33 1
  65   32   34 1

#	End of record

