#	Name: ASD01915711
#	Creating user name:	WinNT
#	Creation time:	15. 06. 2019 20:06

#	Modifying user name:	WinNT
#	Modification time:	15. 06. 2019 20:06

#	Program:	/corina/corina34_cracker 3.40 0067  02.08.2006

@<TRIPOS>MOLECULE
ASD01915711
  42   45    0    0    0
SMALL
NO_CHARGES


@<TRIPOS>ATOM
   1 C1            -0.0087     1.4173     0.0997 C.2     
   2 N2             0.0285     0.0456    -0.0148 N.pl3   
   3 C3            -1.2049    -0.7398    -0.1428 C.3     
   4 C4            -2.3389    -0.0222     0.5874 C.3     
   5 N5            -2.4044     1.3988     0.2637 N.am    
   6 C6            -1.2833     2.1497     0.1396 C.2     
   7 C7             1.2863     1.8478     0.1719 C.2     
   8 C8             2.0605     0.6815     0.1071 C.2     
   9 N9             1.2440    -0.3411     0.0027 N.2     
  10 C10            3.5653     0.6131     0.1501 C.3     
  11 O11            4.0989     1.9334     0.2687 O.3     
  12 C12            5.4497     2.0495     0.3210 C.ar    
  13 O13           -1.3287     3.3630     0.0653 O.2     
  14 N14            6.2033     0.9639     0.2617 N.ar    
  15 C15            6.0282     3.3073     0.4305 C.ar    
  16 C16            7.4075     3.4120     0.4829 C.ar    
  17 C17            8.1623     2.2489     0.4235 C.ar    
  18 C18            7.5200     1.0318     0.3091 C.ar    
  19 C19           -3.6493     1.9980     0.0772 C.ar    
  20 N20           -4.2859     2.5414     1.1038 N.ar    
  21 C21           -4.2282     2.0326    -1.1959 C.ar    
  22 N22           -5.4097     2.6034    -1.3651 N.ar    
  23 C23           -6.0402     3.1392    -0.3318 C.ar    
  24 C24           -5.4673     3.1098     0.9237 C.ar    
  25 O25           -3.5797     1.4829    -2.2540 O.3     
  26 C26           -4.2316     1.5556    -3.5235 C.3     
  27 H27           -1.4608    -0.8460    -1.1971 H       
  28 H28           -1.0557    -1.7259     0.2969 H       
  29 H29           -3.2850    -0.4895     0.3144 H       
  30 H30           -2.1911    -0.1322     1.6617 H       
  31 H31            1.6369     2.8655     0.2595 H       
  32 H32            3.8776     0.0166     1.0073 H       
  33 H33            3.9345     0.1530    -0.7665 H       
  34 H34            5.4102     4.1919     0.4739 H       
  35 H35            7.8853     4.3768     0.5677 H       
  36 H36            9.2406     2.2955     0.4616 H       
  37 H37            8.1027     0.1237     0.2625 H       
  38 H38           -7.0046     3.6046    -0.4723 H       
  39 H39           -5.9868     3.5487     1.7626 H       
  40 H40           -4.3933     2.6002    -3.7896 H       
  41 H41           -3.6074     1.0804    -4.2802 H       
  42 H42           -5.1913     1.0418    -3.4691 H       
@<TRIPOS>BOND
   1    1    2 1
   2    1    7 2
   3    1    6 1
   4    2    3 1
   5    2    9 1
   6    3    4 1
   7    3   27 1
   8    3   28 1
   9    4    5 1
  10    4   29 1
  11    4   30 1
  12    5    6 am
  13    5   19 1
  14    6   13 2
  15    7    8 1
  16    7   31 1
  17    8    9 2
  18    8   10 1
  19   10   11 1
  20   10   32 1
  21   10   33 1
  22   11   12 1
  23   12   14 ar
  24   12   15 ar
  25   14   18 ar
  26   15   16 ar
  27   15   34 1
  28   16   17 ar
  29   16   35 1
  30   17   18 ar
  31   17   36 1
  32   18   37 1
  33   19   20 ar
  34   19   21 ar
  35   20   24 ar
  36   21   22 ar
  37   21   25 1
  38   22   23 ar
  39   23   24 ar
  40   23   38 1
  41   24   39 1
  42   25   26 1
  43   26   40 1
  44   26   41 1
  45   26   42 1

#	End of record

