#	Name: ASD01190058
#	Creating user name:	WinNT
#	Creation time:	15. 06. 2019 19:07

#	Modifying user name:	WinNT
#	Modification time:	15. 06. 2019 19:07

#	Program:	/corina/corina34_cracker 3.40 0067  02.08.2006

@<TRIPOS>MOLECULE
ASD01190058
  45   49    0    0    0
SMALL
NO_CHARGES


@<TRIPOS>ATOM
   1 C1            -0.0187     1.5258     0.0104 C.3     
   2 C2            -0.2454     2.5471     1.1268 C.3     
   3 N3            -1.9025    -1.5958     0.5075 N.pl3   
   4 N4            -1.6446    -0.3764    -0.1272 N.2     
   5 C5            -0.6100     0.1999     0.4149 C.2     
   6 C6            -0.1252    -0.6678     1.4832 C.ar    
   7 C7             0.9296    -0.5866     2.3993 C.ar    
   8 C8             1.1214    -1.5947     3.2988 C.ar    
   9 C9             0.2799    -2.7005     3.3131 C.ar    
  10 C10           -0.7560    -2.8028     2.4288 C.ar    
  11 C11           -0.9771    -1.7890     1.4996 C.ar    
  12 N12           -2.7320     3.2948    -4.5850 N.pl3   
  13 N13           -4.0439     3.2091    -4.1073 N.2     
  14 C14           -4.0452     2.7806    -2.8768 C.2     
  15 C15           -2.6586     2.5571    -2.4801 C.ar    
  16 C16           -2.0429     2.1101    -1.3057 C.ar    
  17 C17           -0.6829     2.0074    -1.2536 C.ar    
  18 C18            0.0950     2.3431    -2.3550 C.ar    
  19 C19           -0.4831     2.7823    -3.5123 C.ar    
  20 C20           -1.8681     2.8968    -3.5951 C.ar    
  21 C21           -2.3600     3.7135    -5.8690 C.ar    
  22 C22           -3.1622     3.4065    -6.9602 C.ar    
  23 C23           -2.7936     3.8203    -8.2251 C.ar    
  24 C24           -1.6249     4.5409    -8.4059 C.ar    
  25 C25           -0.8234     4.8481    -7.3190 C.ar    
  26 C26           -1.1914     4.4411    -6.0517 C.ar    
  27 F27           -1.2658     4.9443    -9.6442 F       
  28 F28            0.3712     2.1000     2.3003 F       
  29 F29            0.3035     3.7780     0.7513 F       
  30 F30           -1.6184     2.6974     1.3496 F       
  31 O31            1.3837     1.3723    -0.2171 O.3     
  32 H32           -2.6234    -2.2051     0.2841 H       
  33 H33            1.5885     0.2692     2.3942 H       
  34 H34            1.9353    -1.5327     4.0061 H       
  35 H35            0.4473    -3.4888     4.0320 H       
  36 H36           -1.4023    -3.6678     2.4500 H       
  37 H37           -4.9172     2.6197    -2.2601 H       
  38 H38           -2.6406     1.8480    -0.4451 H       
  39 H39            1.1698     2.2562    -2.2952 H       
  40 H40            0.1330     3.0404    -4.3610 H       
  41 H41           -4.0735     2.8443    -6.8197 H       
  42 H42           -3.4170     3.5814    -9.0740 H       
  43 H43            0.0878     5.4098    -7.4621 H       
  44 H44           -0.5686     4.6851    -5.2037 H       
  45 H45            1.6021     0.7381    -0.9137 H       
@<TRIPOS>BOND
   1    1    2 1
   2    1    5 1
   3    1   17 1
   4    1   31 1
   5    2   28 1
   6    2   29 1
   7    2   30 1
   8    3    4 1
   9    3   11 1
  10    3   32 1
  11    4    5 2
  12    5    6 1
  13    6    7 ar
  14    6   11 ar
  15    7    8 ar
  16    7   33 1
  17    8    9 ar
  18    8   34 1
  19    9   10 ar
  20    9   35 1
  21   10   11 ar
  22   10   36 1
  23   12   13 1
  24   12   20 1
  25   12   21 1
  26   13   14 2
  27   14   15 1
  28   14   37 1
  29   15   16 ar
  30   15   20 ar
  31   16   17 ar
  32   16   38 1
  33   17   18 ar
  34   18   19 ar
  35   18   39 1
  36   19   20 ar
  37   19   40 1
  38   21   22 ar
  39   21   26 ar
  40   22   23 ar
  41   22   41 1
  42   23   24 ar
  43   23   42 1
  44   24   25 ar
  45   24   27 1
  46   25   26 ar
  47   25   43 1
  48   26   44 1
  49   31   45 1

#	End of record

