#	Name: ASD01028471
#	Creating user name:	WinNT
#	Creation time:	15. 06. 2019 18:57

#	Modifying user name:	WinNT
#	Modification time:	15. 06. 2019 18:57

#	Program:	/corina/corina34_cracker 3.40 0067  02.08.2006

@<TRIPOS>MOLECULE
ASD01028471
  52   57    0    0    0
SMALL
NO_CHARGES


@<TRIPOS>ATOM
   1 C1            -0.0171     1.4118     0.0098 C.ar    
   2 C2             0.0021    -0.0041     0.0020 C.ar    
   3 C3             1.2105     2.1116     0.0018 C.ar    
   4 C4             2.3793     1.3714    -0.0133 C.ar    
   5 C5             2.3160    -0.0162    -0.0202 C.ar    
   6 N6             1.1704    -0.6565    -0.0123 N.ar    
   7 O7             1.2420     3.4670     0.0084 O.3     
   8 C8             2.5299     4.0861    -0.0005 C.3     
   9 C9             2.3673     5.5842     0.0086 C.2     
  10 N10            2.2915     6.3712     1.1039 N.pl3   
  11 C11            2.1477     7.6565     0.6383 C.2     
  12 N12            2.1436     7.5869    -0.6829 N.2     
  13 N13            2.2796     6.3587    -1.0441 N.2     
  14 N14            2.3304     6.1245     2.4777 N.2     
  15 C15            2.2303     7.1155     3.3362 C.2     
  16 C16            2.0814     8.4459     2.8892 C.2     
  17 C17            2.0414     8.7170     1.5582 C.2     
  18 C18            2.2740     6.8319     4.7912 C.ar    
  19 C19           -1.2152    -0.7043     0.0100 C.ar    
  20 C20           -2.4012    -0.0065     0.0251 C.ar    
  21 C21           -2.4085     1.3917     0.0322 C.ar    
  22 C22           -1.2431     2.0938     0.0309 C.ar    
  23 O23           -3.5786    -0.6840     0.0328 O.3     
  24 C24           -4.7758     0.0961     0.0485 C.3     
  25 C25            2.1688     7.8748     5.7095 C.ar    
  26 C26            2.2112     7.6091     7.0625 C.ar    
  27 C27            2.3590     6.3049     7.5145 C.ar    
  28 C28            2.4616     5.2593     6.6018 C.ar    
  29 C29            2.4146     5.5209     5.2434 C.ar    
  30 O30            2.4065     6.0661     8.8534 O.3     
  31 C31            2.1784     4.7172     9.2754 C.3     
  32 C32            3.0139     3.7870     8.3855 C.3     
  33 O33            2.5990     3.9738     7.0281 O.3     
  34 H34            3.3370     1.8705    -0.0202 H       
  35 H35            3.2348    -0.5838    -0.0321 H       
  36 H36            3.0883     3.7758     0.8827 H       
  37 H37            3.0716     3.7849    -0.8972 H       
  38 H38            2.0001     9.2496     3.6060 H       
  39 H39            1.9281     9.7332     1.2104 H       
  40 H40           -1.2205    -1.7843     0.0039 H       
  41 H41           -3.3501     1.9205     0.0433 H       
  42 H42           -1.2617     3.1736     0.0364 H       
  43 H43           -4.8082     0.7297    -0.8378 H       
  44 H44           -5.6412    -0.5666     0.0533 H       
  45 H45           -4.7911     0.7202     0.9420 H       
  46 H46            2.0546     8.8910     5.3620 H       
  47 H47            2.1294     8.4187     7.7726 H       
  48 H48            2.4958     4.7106     4.5340 H       
  49 H49            2.4823     4.6013    10.3158 H       
  50 H50            1.1211     4.4734     9.1714 H       
  51 H51            4.0706     4.0351     8.4844 H       
  52 H52            2.8498     2.7507     8.6808 H       
@<TRIPOS>BOND
   1    1    2 ar
   2    1    3 ar
   3    1   22 ar
   4    2   19 ar
   5    2    6 ar
   6    3    4 ar
   7    3    7 1
   8    4    5 ar
   9    4   34 1
  10    5    6 ar
  11    5   35 1
  12    7    8 1
  13    8    9 1
  14    8   36 1
  15    8   37 1
  16    9   10 1
  17    9   13 2
  18   10   11 1
  19   10   14 1
  20   11   12 2
  21   11   17 1
  22   12   13 1
  23   14   15 2
  24   15   16 1
  25   15   18 1
  26   16   17 2
  27   16   38 1
  28   17   39 1
  29   18   25 ar
  30   18   29 ar
  31   19   20 ar
  32   19   40 1
  33   20   21 ar
  34   20   23 1
  35   21   22 ar
  36   21   41 1
  37   22   42 1
  38   23   24 1
  39   24   43 1
  40   24   44 1
  41   24   45 1
  42   25   26 ar
  43   25   46 1
  44   26   27 ar
  45   26   47 1
  46   27   28 ar
  47   27   30 1
  48   28   29 ar
  49   28   33 1
  50   29   48 1
  51   30   31 1
  52   31   32 1
  53   31   49 1
  54   31   50 1
  55   32   33 1
  56   32   51 1
  57   32   52 1

#	End of record

