#	Name: ASD00601005
#	Creating user name:	WinNT
#	Creation time:	15. 06. 2019 18:36

#	Modifying user name:	WinNT
#	Modification time:	15. 06. 2019 18:36

#	Program:	/corina/corina34_cracker 3.40 0067  02.08.2006

@<TRIPOS>MOLECULE
ASD00601005
  51   53    0    0    0
SMALL
NO_CHARGES


@<TRIPOS>ATOM
   1 C1            -0.0414     1.4326    -0.0106 C.3     
   2 O2            -0.0244     0.0037    -0.0168 O.3     
   3 C3             0.5902    -0.6106     1.0283 C.ar    
   4 C4             1.1648     0.1464     2.0385 C.ar    
   5 C5             1.7891    -0.4800     3.1000 C.ar    
   6 C6             1.8413    -1.8612     3.1557 C.ar    
   7 C7             1.2687    -2.6182     2.1489 C.ar    
   8 C8             0.6387    -1.9959     1.0889 C.ar    
   9 C9             0.0152    -2.8209    -0.0073 C.3     
  10 Br10           2.6970    -2.7159     4.6094 Br      
  11 N11            0.9215    -2.8652    -1.1626 N.3     
  12 C12            2.1548    -3.5925    -0.8364 C.3     
  13 C13            3.0077    -3.7447    -2.0979 C.3     
  14 C14            3.3426    -2.3572    -2.6521 C.3     
  15 C15            2.0413    -1.6026    -2.9381 C.3     
  16 C16            1.2165    -1.5125    -1.6522 C.3     
  17 C17            2.3621    -0.2142    -3.4283 C.2     
  18 O18            2.3983     0.7119    -2.6460 O.2     
  19 N19            2.6089    -0.0016    -4.7361 N.am    
  20 C20            2.8091     1.3609    -5.2483 C.3     
  21 C21            4.1365     1.4107    -6.0113 C.3     
  22 C22            4.1406     0.3264    -7.0913 C.3     
  23 C23            4.0121    -1.0502    -6.4349 C.3     
  24 C24            2.6888    -1.1283    -5.6757 C.3     
  25 H25            0.9819     1.8081    -0.0108 H       
  26 H26           -0.5610     1.7936    -0.8982 H       
  27 H27           -0.5579     1.7859     0.8818 H       
  28 H28            1.1246     1.2248     1.9952 H       
  29 H29            2.2370     0.1090     3.8866 H       
  30 H30            1.3109    -3.6964     2.1941 H       
  31 H31           -0.1608    -3.8336     0.3554 H       
  32 H32           -0.9322    -2.3721    -0.3057 H       
  33 H33            2.7152    -3.0379    -0.0838 H       
  34 H34            1.9025    -4.5790    -0.4473 H       
  35 H35            3.9301    -4.2709    -1.8523 H       
  36 H36            2.4531    -4.3112    -2.8460 H       
  37 H37            3.9307    -1.8045    -1.9194 H       
  38 H38            3.9135    -2.4615    -3.5748 H       
  39 H39            1.4715    -2.1354    -3.6994 H       
  40 H40            0.2827    -0.9883    -1.8557 H       
  41 H41            1.7813    -0.9677    -0.8958 H       
  42 H42            1.9915     1.6226    -5.9200 H       
  43 H43            2.8397     2.0635    -4.4156 H       
  44 H44            4.2515     2.3891    -6.4778 H       
  45 H45            4.9607     1.2380    -5.3192 H       
  46 H46            3.3016     0.4853    -7.7687 H       
  47 H47            5.0741     0.3757    -7.6519 H       
  48 H48            4.0386    -1.8233    -7.2028 H       
  49 H49            4.8375    -1.1997    -5.7388 H       
  50 H50            2.6378    -2.0683    -5.1261 H       
  51 H51            1.8593    -1.0692    -6.3803 H       
@<TRIPOS>BOND
   1    1    2 1
   2    1   25 1
   3    1   26 1
   4    1   27 1
   5    2    3 1
   6    3    4 ar
   7    3    8 ar
   8    4    5 ar
   9    4   28 1
  10    5    6 ar
  11    5   29 1
  12    6    7 ar
  13    6   10 1
  14    7    8 ar
  15    7   30 1
  16    8    9 1
  17    9   11 1
  18    9   31 1
  19    9   32 1
  20   11   12 1
  21   11   16 1
  22   12   13 1
  23   12   33 1
  24   12   34 1
  25   13   14 1
  26   13   35 1
  27   13   36 1
  28   14   15 1
  29   14   37 1
  30   14   38 1
  31   15   16 1
  32   15   17 1
  33   15   39 1
  34   16   40 1
  35   16   41 1
  36   17   18 2
  37   17   19 am
  38   19   20 1
  39   19   24 1
  40   20   21 1
  41   20   42 1
  42   20   43 1
  43   21   22 1
  44   21   44 1
  45   21   45 1
  46   22   23 1
  47   22   46 1
  48   22   47 1
  49   23   24 1
  50   23   48 1
  51   23   49 1
  52   24   50 1
  53   24   51 1

#	End of record

