#	Name: ASD04978003
#	Creating user name:	WinNT
#	Creation time:	15. 06. 2019 20:56

#	Modifying user name:	WinNT
#	Modification time:	15. 06. 2019 20:56

#	Program:	/corina/corina34_cracker 3.40 0067  02.08.2006

@<TRIPOS>MOLECULE
ASD04978003
  14   13    0    0    0
SMALL
NO_CHARGES


@<TRIPOS>ATOM
   1 C1            -0.0184     1.5028     0.0103 C.2     
   2 C2             0.0021    -0.0041     0.0020 C.3     
   3 C3            -0.7241    -0.5171    -1.2431 C.3     
   4 C4            -0.7036    -2.0240    -1.2514 C.2     
   5 S5            -2.0774    -2.8422    -1.2427 S.2     
   6 S6             1.3554     2.3210     0.0016 S.2     
   7 O7            -2.0776    -0.0592    -1.2277 O.3     
   8 O8             1.3556    -0.4620    -0.0134 O.3     
   9 H9            -0.9609     2.0300     0.0176 H       
  10 H10           -0.4983    -0.3791     0.8948 H       
  11 H11           -0.2237    -0.1421    -2.1359 H       
  12 H12            0.2389    -2.5512    -1.2632 H       
  13 H13           -2.5844    -0.3556    -0.4594 H       
  14 H14            1.8624    -0.1655    -0.7817 H       
@<TRIPOS>BOND
   1    1    2 1
   2    1    6 2
   3    1    9 1
   4    2    3 1
   5    2    8 1
   6    2   10 1
   7    3    4 1
   8    3    7 1
   9    3   11 1
  10    4    5 2
  11    4   12 1
  12    7   13 1
  13    8   14 1

#	End of record

