#	Name: ASD04880466
#	Creating user name:	WinNT
#	Creation time:	15. 06. 2019 20:53

#	Modifying user name:	WinNT
#	Modification time:	15. 06. 2019 20:53

#	Program:	/corina/corina34_cracker 3.40 0067  02.08.2006

@<TRIPOS>MOLECULE
ASD04880466
  52   54    0    0    0
SMALL
NO_CHARGES


@<TRIPOS>ATOM
   1 C1            -0.2341     0.4095     2.2613 C.ar    
   2 C2            -0.3275    -0.9543     2.0273 C.ar    
   3 C3            -1.5173    -1.5037     1.5968 C.ar    
   4 C4            -2.6317    -0.6858     1.3960 C.ar    
   5 C5            -2.5373     0.6884     1.6324 C.ar    
   6 C6            -1.3434     1.2307     2.0686 C.ar    
   7 O7             0.9409     0.9457     2.6850 O.3     
   8 C8             2.0361     0.0461     2.8678 C.3     
   9 C9            -3.9042    -1.2707     0.9355 C.2     
  10 C10           -4.1361    -2.7362     0.6445 C.3     
  11 C11           -5.6123    -2.7985     0.2048 C.3     
  12 N12           -6.0567    -1.3982     0.2886 N.am    
  13 N13           -4.9915    -0.6127     0.7242 N.2     
  14 C14           -7.2934    -0.9493    -0.0040 C.2     
  15 O15           -8.1493    -1.7262    -0.3723 O.2     
  16 C16           -7.6131     0.5176     0.1264 C.3     
  17 N17           -9.0427     0.6829     0.4212 N.3     
  18 C18           -9.3973     0.0326     1.6898 C.3     
  19 C19           -6.1810     2.0537    -1.2354 C.ar    
  20 O20           -1.2482     2.5674     2.3001 O.3     
  21 C21           -2.4214     3.3506     2.0714 C.3     
  22 C22           -7.2818     1.2206    -1.1647 C.ar    
  23 C23           -8.0785     1.0320    -2.2785 C.ar    
  24 C24           -7.7747     1.6769    -3.4629 C.ar    
  25 C25           -6.6743     2.5107    -3.5333 C.ar    
  26 C26           -5.8781     2.7000    -2.4193 C.ar    
  27 C27           -9.4165     2.1035     0.4353 C.3     
  28 H28            0.5334    -1.5877     2.1821 H       
  29 H29           -1.5871    -2.5659     1.4146 H       
  30 H30           -3.3965     1.3244     1.4785 H       
  31 H31            1.7703    -0.7031     3.6135 H       
  32 H32            2.2631    -0.4467     1.9224 H       
  33 H33            2.9102     0.6020     3.2068 H       
  34 H34           -3.4829    -3.0744    -0.1599 H       
  35 H35           -3.9792    -3.3338     1.5425 H       
  36 H36           -5.6925    -3.1658    -0.8183 H       
  37 H37           -6.1890    -3.4253     0.8848 H       
  38 H38           -7.0231     0.9474     0.9359 H       
  39 H39           -8.8725     0.5239     2.5091 H       
  40 H40          -10.4728     0.1094     1.8492 H       
  41 H41           -9.1097    -1.0181     1.6523 H       
  42 H42           -5.5609     2.2042    -0.3641 H       
  43 H43           -2.2090     4.3965     2.2933 H       
  44 H44           -2.7248     3.2548     1.0289 H       
  45 H45           -3.2252     2.9981     2.7177 H       
  46 H46           -8.9382     0.3806    -2.2235 H       
  47 H47           -8.3967     1.5290    -4.3333 H       
  48 H48           -6.4365     3.0140    -4.4588 H       
  49 H49           -5.0187     3.3517    -2.4742 H       
  50 H50           -9.2624     2.5296    -0.5561 H       
  51 H51          -10.4659     2.2003     0.7134 H       
  52 H52           -8.7983     2.6346     1.1591 H       
@<TRIPOS>BOND
   1    1    2 ar
   2    1    7 1
   3    1    6 ar
   4    2    3 ar
   5    2   28 1
   6    3    4 ar
   7    3   29 1
   8    4    5 ar
   9    4    9 1
  10    5    6 ar
  11    5   30 1
  12    6   20 1
  13    7    8 1
  14    8   31 1
  15    8   32 1
  16    8   33 1
  17    9   10 1
  18    9   13 2
  19   10   11 1
  20   10   34 1
  21   10   35 1
  22   11   12 1
  23   11   36 1
  24   11   37 1
  25   12   13 1
  26   12   14 am
  27   14   15 2
  28   14   16 1
  29   16   17 1
  30   16   22 1
  31   16   38 1
  32   17   18 1
  33   17   27 1
  34   18   39 1
  35   18   40 1
  36   18   41 1
  37   19   22 ar
  38   19   26 ar
  39   19   42 1
  40   20   21 1
  41   21   43 1
  42   21   44 1
  43   21   45 1
  44   22   23 ar
  45   23   24 ar
  46   23   46 1
  47   24   25 ar
  48   24   47 1
  49   25   26 ar
  50   25   48 1
  51   26   49 1
  52   27   50 1
  53   27   51 1
  54   27   52 1

#	End of record

