#	Name: ASD01820078
#	Creating user name:	WinNT
#	Creation time:	15. 06. 2019 19:36

#	Modifying user name:	WinNT
#	Modification time:	15. 06. 2019 19:36

#	Program:	/corina/corina34_cracker 3.40 0067  02.08.2006

@<TRIPOS>MOLECULE
ASD01820078
 113  118    0    0    0
SMALL
NO_CHARGES


@<TRIPOS>ATOM
   1 C1            -0.0187     1.5258     0.0104 C.3     
   2 C2             6.5735     9.5653    -0.8327 C.ar    
   3 C3             6.6821    10.5662     0.2882 C.3     
   4 C4             5.6703    10.2209     1.3814 C.3     
   5 C5             5.7636     8.7581     1.7226 C.2     
   6 N6             6.0365     7.8456     0.7720 N.am    
   7 C7             6.2555     8.2435    -0.5504 C.ar    
   8 C8             4.7193     5.7949     0.9742 C.3     
   9 C9             6.1051     6.4255     1.1252 C.3     
  10 O10            5.5913     8.3976     2.8677 O.2     
  11 C11            4.7909     4.3118     1.3431 C.3     
  12 N12            3.4604     3.7063     1.1981 N.3     
  13 C13            3.5324     2.2440     1.3119 C.3     
  14 C14            6.1564     7.3204    -1.5830 C.ar    
  15 C15            6.3736     7.7202    -2.8869 C.ar    
  16 C16            6.6900     9.0376    -3.1646 C.ar    
  17 C17            6.7843     9.9603    -2.1390 C.ar    
  18 C18            2.8334     4.1102    -0.0669 C.3     
  19 C19            1.3980     3.5819    -0.1178 C.3     
  20 C20            1.4167     2.0553    -0.0004 C.3     
  21 C21            2.1178     1.6600     1.3021 C.3     
  22 C22           -5.6772    -6.7119     0.0202 C.3     
  23 C23           -5.6565    -8.2417     0.0118 C.3     
  24 C24           -7.0858    -8.7736     0.1484 C.3     
  25 C25           -7.0649   -10.3022     0.0782 C.3     
  26 N26           -6.4859   -10.7268    -1.2028 N.3     
  27 C27           -5.0974   -10.2678    -1.3359 C.3     
  28 C28           -5.0595    -8.7381    -1.3079 C.3     
  29 C29           -6.5763   -12.1841    -1.3642 C.3     
  30 C30           -6.1978   -12.5630    -2.7974 C.3     
  31 C31           -6.2920   -14.0808    -2.9654 C.3     
  32 N32           -5.9295   -14.4436    -4.3378 N.am    
  33 C33           -4.5965   -14.7248    -4.6525 C.ar    
  34 C34           -6.8825   -14.5093    -5.2854 C.2     
  35 C35           -6.5383   -14.8993    -6.6976 C.3     
  36 C36           -5.1595   -14.3517    -7.0677 C.3     
  37 C37           -4.1747   -14.6911    -5.9749 C.ar    
  38 C38           -2.8578   -14.9646    -6.2877 C.ar    
  39 C39           -1.9585   -15.2756    -5.2842 C.ar    
  40 C40           -2.3747   -15.3137    -3.9658 C.ar    
  41 C41           -3.6924   -15.0374    -3.6460 C.ar    
  42 O42           -8.0324   -14.2517    -4.9981 O.2     
  43 C43            0.0021    -0.0041     0.0020 C.3     
  44 C44           -1.4333    -0.5336     0.0129 C.3     
  45 C45           -1.4126    -2.0635     0.0045 C.3     
  46 C46           -2.8479    -2.5931     0.0153 C.3     
  47 C47           -2.8272    -4.1229     0.0069 C.3     
  48 C48           -4.2626    -4.6525     0.0178 C.3     
  49 C49           -4.2418    -6.1823     0.0094 C.3     
  50 H50           -0.5289     1.8773     0.9072 H       
  51 H51           -0.5459     1.8868    -0.8726 H       
  52 H52            7.6894    10.5383     0.7037 H       
  53 H53            6.4753    11.5652    -0.0957 H       
  54 H54            5.8817    10.8144     2.2709 H       
  55 H55            4.6642    10.4467     1.0279 H       
  56 H56            4.0161     6.3003     1.6361 H       
  57 H57            4.3843     5.8968    -0.0580 H       
  58 H58            6.8084     5.9200     0.4633 H       
  59 H59            6.4402     6.3236     2.1574 H       
  60 H60            5.4942     3.8063     0.6812 H       
  61 H61            5.1260     4.2098     2.3753 H       
  62 H62            4.0972     1.8416     0.4710 H       
  63 H63            4.0294     1.9764     2.2444 H       
  64 H64            5.9102     6.2913    -1.3667 H       
  65 H65            6.2967     7.0031    -3.6908 H       
  66 H66            6.8594     9.3474    -4.1853 H       
  67 H67            7.0314    10.9884    -2.3588 H       
  68 H68            2.8227     5.1980    -0.1359 H       
  69 H69            3.4016     3.6991    -0.9013 H       
  70 H70            0.8256     4.0035     0.7084 H       
  71 H71            0.9381     3.8686    -1.0636 H       
  72 H72            1.9550     1.6314    -0.8481 H       
  73 H73            2.1722     0.5736     1.3709 H       
  74 H74            1.5567     2.0513     2.1507 H       
  75 H75           -6.2044    -6.3508    -0.8628 H       
  76 H76           -6.1874    -6.3604     0.9170 H       
  77 H77           -5.0525    -8.6024     0.8444 H       
  78 H78           -7.5013    -8.4589     1.1057 H       
  79 H79           -7.6994    -8.3804    -0.6622 H       
  80 H80           -6.4625   -10.6952     0.8971 H       
  81 H81           -8.0827   -10.6835     0.1608 H       
  82 H82           -4.5041   -10.6609    -0.5104 H       
  83 H83           -4.6861   -10.6240    -2.2804 H       
  84 H84           -5.6412    -8.3444    -2.1414 H       
  85 H85           -4.0272    -8.3981    -1.3911 H       
  86 H86           -5.8932   -12.6699    -0.6674 H       
  87 H87           -7.5963   -12.5097    -1.1596 H       
  88 H88           -6.8809   -12.0772    -3.4941 H       
  89 H89           -5.1778   -12.2374    -3.0019 H       
  90 H90           -5.6089   -14.5666    -2.2687 H       
  91 H91           -7.3119   -14.4064    -2.7609 H       
  92 H92           -6.5306   -15.9861    -6.7815 H       
  93 H93           -7.2849   -14.4903    -7.3784 H       
  94 H94           -4.8296   -14.8011    -8.0043 H       
  95 H95           -5.2181   -13.2696    -7.1851 H       
  96 H96           -2.5301   -14.9361    -7.3163 H       
  97 H97           -0.9290   -15.4896    -5.5307 H       
  98 H98           -1.6698   -15.5573    -3.1847 H       
  99 H99           -4.0167   -15.0673    -2.6162 H       
 100 H100           0.5123    -0.3556    -0.8948 H       
 101 H101           0.5293    -0.3651     0.8851 H       
 102 H102          -1.9435    -0.1821     0.9097 H       
 103 H103          -1.9605    -0.1726    -0.8702 H       
 104 H104          -0.9024    -2.4150    -0.8923 H       
 105 H105          -0.8854    -2.4246     0.8875 H       
 106 H106          -3.3581    -2.2415     0.9121 H       
 107 H107          -3.3751    -2.2320    -0.8677 H       
 108 H108          -2.3170    -4.4744    -0.8899 H       
 109 H109          -2.3000    -4.4840     0.8900 H       
 110 H110          -4.7728    -4.3010     0.9146 H       
 111 H111          -4.7898    -4.2914    -0.8653 H       
 112 H112          -3.7146    -6.5434     0.8924 H       
 113 H113          -3.7316    -6.5338    -0.8874 H       
@<TRIPOS>BOND
   1    1   43 1
   2    1   20 1
   3    1   50 1
   4    1   51 1
   5    2    3 1
   6    2    7 ar
   7    2   17 ar
   8    3    4 1
   9    3   52 1
  10    3   53 1
  11    4    5 1
  12    4   54 1
  13    4   55 1
  14    5    6 am
  15    5   10 2
  16    6    7 1
  17    6    9 1
  18    7   14 ar
  19    8    9 1
  20    8   11 1
  21    8   56 1
  22    8   57 1
  23    9   58 1
  24    9   59 1
  25   11   12 1
  26   11   60 1
  27   11   61 1
  28   12   13 1
  29   12   18 1
  30   13   21 1
  31   13   62 1
  32   13   63 1
  33   14   15 ar
  34   14   64 1
  35   15   16 ar
  36   15   65 1
  37   16   17 ar
  38   16   66 1
  39   17   67 1
  40   18   19 1
  41   18   68 1
  42   18   69 1
  43   19   20 1
  44   19   70 1
  45   19   71 1
  46   20   21 1
  47   20   72 1
  48   21   73 1
  49   21   74 1
  50   22   49 1
  51   22   23 1
  52   22   75 1
  53   22   76 1
  54   23   24 1
  55   23   28 1
  56   23   77 1
  57   24   25 1
  58   24   78 1
  59   24   79 1
  60   25   26 1
  61   25   80 1
  62   25   81 1
  63   26   27 1
  64   26   29 1
  65   27   28 1
  66   27   82 1
  67   27   83 1
  68   28   84 1
  69   28   85 1
  70   29   30 1
  71   29   86 1
  72   29   87 1
  73   30   31 1
  74   30   88 1
  75   30   89 1
  76   31   32 1
  77   31   90 1
  78   31   91 1
  79   32   33 1
  80   32   34 am
  81   33   37 ar
  82   33   41 ar
  83   34   35 1
  84   34   42 2
  85   35   36 1
  86   35   92 1
  87   35   93 1
  88   36   37 1
  89   36   94 1
  90   36   95 1
  91   37   38 ar
  92   38   39 ar
  93   38   96 1
  94   39   40 ar
  95   39   97 1
  96   40   41 ar
  97   40   98 1
  98   41   99 1
  99   43   44 1
 100   43  100 1
 101   43  101 1
 102   44   45 1
 103   44  102 1
 104   44  103 1
 105   45   46 1
 106   45  104 1
 107   45  105 1
 108   46   47 1
 109   46  106 1
 110   46  107 1
 111   47   48 1
 112   47  108 1
 113   47  109 1
 114   48   49 1
 115   48  110 1
 116   48  111 1
 117   49  112 1
 118   49  113 1

#	End of record

