#	Name: ASD06980001
#	Creating user name:	WinNT
#	Creation time:	15. 06. 2019 21:08

#	Modifying user name:	WinNT
#	Modification time:	15. 06. 2019 21:08

#	Program:	/corina/corina34_cracker 3.40 0067  02.08.2006

@<TRIPOS>MOLECULE
ASD06980001
  70   76    0    0    0
SMALL
NO_CHARGES


@<TRIPOS>ATOM
   1 P1            -0.0180     1.4758     0.0102 P.3     
   2 P2            -2.0344     5.5777    -2.0216 P.3     
   3 O3             0.0021    -0.0041     0.0020 O.2     
   4 O4             1.4925     2.0329    -0.0013 O.3     
   5 C5            -0.6245     1.4349    -2.5919 C.3     
   6 O6            -0.7964     2.0090    -1.2944 O.3     
   7 C7            -0.3006     2.5395    -3.5993 C.3     
   8 O8            -0.1470     1.9771    -4.9044 O.3     
   9 C9            -1.4594     3.5464    -3.6599 C.3     
  10 O10           -1.0801     4.7775    -3.0418 O.3     
  11 C11           -1.7234     3.7608    -5.1615 C.3     
  12 O12           -1.5209     5.1316    -5.5109 O.3     
  13 C13           -0.6961     2.8697    -5.8768 C.3     
  14 C14           -1.5313     4.0768     3.9882 C.3     
  15 N15            0.8712     5.7551    -9.9246 N.am    
  16 C16           -0.3002     5.0800    -9.7515 C.2     
  17 C17           -0.3923     3.2282     3.4033 C.3     
  18 N18           -1.2467     5.1224   -10.7443 N.pl3   
  19 O19           -0.5000     1.8756     3.8514 O.3     
  20 C20           -0.5811     3.3030     1.8770 C.3     
  21 N21           -0.5493     4.3892    -8.6614 N.2     
  22 O22           -0.7712     1.9948     1.3349 O.3     
  23 C23            0.3442     4.3192    -7.6677 C.2     
  24 C24           -1.8440     4.1541     1.6737 C.3     
  25 O25           -2.1340     4.8015     2.9144 O.3     
  26 C26            1.5663     4.9909    -7.7855 C.2     
  27 C27           -1.5949     5.2017     0.5870 C.3     
  28 O28           -2.1611     4.7519    -0.6457 O.3     
  29 C29            1.8214     5.7306    -8.9640 C.2     
  30 O30            2.8726     6.3308    -9.1095 O.2     
  31 N31            2.2676     4.7521    -6.6506 N.2     
  32 C32            1.5653     3.9919    -5.8623 C.2     
  33 N33            0.3683     3.6982    -6.4484 N.pl3   
  34 N34           -2.9381     1.4728     8.2786 N.am    
  35 O35           -1.4537     6.9107    -1.7454 O.2     
  36 C36           -1.8350     2.2440     8.0631 C.2     
  37 N37           -0.9231     2.4005     9.0764 N.pl3   
  38 O38           -3.4939     5.7538    -2.6782 O.3     
  39 N39           -1.6195     2.8419     6.9125 N.2     
  40 C40           -2.4809     2.7173     5.8962 C.2     
  41 C41           -3.6329     1.9385     6.0552 C.2     
  42 C42           -3.8526     1.3007     7.2986 C.2     
  43 O43           -4.8422     0.6125     7.4814 O.2     
  44 N44           -4.3158     1.9870     4.8856 N.2     
  45 C45           -3.6671     2.7315     4.0386 C.2     
  46 N46           -2.5260     3.2052     4.6184 N.pl3   
  47 H47            2.0070     1.7587    -0.7728 H       
  48 H48            0.1941     0.7157    -2.5655 H       
  49 H49           -1.5429     0.9292    -2.8900 H       
  50 H50            0.6170     3.0496    -3.3066 H       
  51 H51           -2.3443     3.1353    -3.1746 H       
  52 H52           -2.7370     3.4512    -5.4163 H       
  53 H53           -1.6731     5.3258    -6.4459 H       
  54 H54           -1.1865     2.3003    -6.6664 H       
  55 H55           -1.1317     4.7733     4.7252 H       
  56 H56            1.0252     6.2523   -10.7431 H       
  57 H57            0.5743     3.6447     3.6865 H       
  58 H58           -1.0772     5.6277   -11.5547 H       
  59 H59           -2.0852     4.6470   -10.6356 H       
  60 H60           -0.4336     1.7726     4.8106 H       
  61 H61            0.2790     3.7845     1.4123 H       
  62 H62           -2.6783     3.5145     1.3862 H       
  63 H63           -2.0589     6.1442     0.8776 H       
  64 H64           -0.5220     5.3478     0.4622 H       
  65 H65            1.8821     3.6453    -4.8897 H       
  66 H66           -3.0652     1.0421     9.1383 H       
  67 H67           -1.0683     1.9653     9.9311 H       
  68 H68           -0.1332     2.9463     8.9381 H       
  69 H69           -4.1228     6.2284    -2.1175 H       
  70 H70           -3.9840     2.9429     3.0280 H       
@<TRIPOS>BOND
   1    1    3 2
   2    1    4 1
   3    1    6 1
   4    1   22 1
   5    2   10 1
   6    2   28 1
   7    2   35 2
   8    2   38 1
   9    4   47 1
  10    5    6 1
  11    5    7 1
  12    5   48 1
  13    5   49 1
  14    7    8 1
  15    7    9 1
  16    7   50 1
  17    8   13 1
  18    9   10 1
  19    9   11 1
  20    9   51 1
  21   11   12 1
  22   11   13 1
  23   11   52 1
  24   12   53 1
  25   13   33 1
  26   13   54 1
  27   14   17 1
  28   14   25 1
  29   14   46 1
  30   14   55 1
  31   15   16 1
  32   15   29 am
  33   15   56 1
  34   16   18 1
  35   16   21 2
  36   17   19 1
  37   17   20 1
  38   17   57 1
  39   18   58 1
  40   18   59 1
  41   19   60 1
  42   20   22 1
  43   20   24 1
  44   20   61 1
  45   21   23 1
  46   23   26 2
  47   23   33 1
  48   24   25 1
  49   24   27 1
  50   24   62 1
  51   26   29 1
  52   26   31 1
  53   27   28 1
  54   27   63 1
  55   27   64 1
  56   29   30 2
  57   31   32 2
  58   32   33 1
  59   32   65 1
  60   34   36 1
  61   34   42 am
  62   34   66 1
  63   36   37 1
  64   36   39 2
  65   37   67 1
  66   37   68 1
  67   38   69 1
  68   39   40 1
  69   40   41 2
  70   40   46 1
  71   41   42 1
  72   41   44 1
  73   42   43 2
  74   44   45 2
  75   45   46 1
  76   45   70 1

#	End of record

