#	Name: ASD01478039
#	Creating user name:	WinNT
#	Creation time:	15. 06. 2019 19:21

#	Modifying user name:	WinNT
#	Modification time:	15. 06. 2019 19:21

#	Program:	/corina/corina34_cracker 3.40 0067  02.08.2006

@<TRIPOS>MOLECULE
ASD01478039
  81   84    0    0    0
SMALL
NO_CHARGES


@<TRIPOS>ATOM
   1 C1             1.3386     0.0382     1.5840 C.3     
   2 C2            -0.0432    -1.5964     0.5283 C.2     
   3 O3             1.0945    -1.3410     1.2013 O.3     
   4 N4            -0.3303    -2.8558     0.1434 N.am    
   5 O5            -0.8112    -0.6915     0.2678 O.2     
   6 C6            -1.3445    -2.8849    -2.0819 C.3     
   7 C7            -1.5683    -3.1337    -0.5889 C.3     
   8 C8            -1.9737    -4.5927    -0.3702 C.3     
   9 C9            -3.3294    -4.8499    -1.0311 C.3     
  10 N10           -3.7862    -6.2016    -0.6985 N.am    
  11 S11           -4.8062    -6.4386     0.5843 S.o2    
  12 C12           -6.4533    -6.3156    -0.0293 C.ar    
  13 C13           -7.1038    -7.4448    -0.4915 C.ar    
  14 C14           -8.3952    -7.3510    -0.9731 C.ar    
  15 C15           -9.0394    -6.1225    -0.9928 C.ar    
  16 C16           -8.3845    -4.9910    -0.5285 C.ar    
  17 C17           -7.0952    -5.0910    -0.0426 C.ar    
  18 O18           -4.6300    -7.7881     0.9930 O.2     
  19 O19           -4.6190    -5.3319     1.4557 O.2     
  20 C20           -3.3406    -7.3435    -1.5008 C.3     
  21 C21           -3.8723    -7.2022    -2.9285 C.3     
  22 C22           -3.2857    -8.3119    -3.8034 C.3     
  23 C23           -5.3982    -7.3139    -2.9179 C.3     
  24 O24           -0.9904    -5.4523    -0.9500 O.3     
  25 C25            2.8560     0.3132     1.6322 C.3     
  26 C26            3.1782     0.6887     3.0834 C.3     
  27 C27            1.8342     1.2550     3.6271 C.3     
  28 C28            0.7997     0.2960     3.0109 C.3     
  29 O29            4.1308     1.7369     3.1864 O.3     
  30 O30            1.8951     1.1978     5.0254 O.3     
  31 C31            4.9468     1.6762     4.3388 C.3     
  32 O32            4.2048     1.3091     5.5203 O.3     
  33 C33            2.9389     1.9351     5.6634 C.3     
  34 C34           -1.0656    -1.4217    -2.3110 C.ar    
  35 C35            0.2338    -0.9517    -2.2740 C.ar    
  36 C36            0.4897     0.3904    -2.4842 C.ar    
  37 C37           -0.5540     1.2624    -2.7318 C.ar    
  38 C38           -1.8533     0.7923    -2.7697 C.ar    
  39 C39           -2.1088    -0.5506    -2.5639 C.ar    
  40 O40          -10.3096    -6.0275    -1.4665 O.3     
  41 C41          -10.9104    -4.7310    -1.4567 C.3     
  42 H42            0.8588     0.7130     0.8750 H       
  43 H43            0.2827    -3.5781     0.3514 H       
  44 H44           -0.4947    -3.4748    -2.4252 H       
  45 H45           -2.2366    -3.1759    -2.6365 H       
  46 H46           -2.3601    -2.4783    -0.2261 H       
  47 H47           -2.0467    -4.7932     0.6987 H       
  48 H48           -4.0546    -4.1217    -0.6680 H       
  49 H49           -3.2301    -4.7557    -2.1125 H       
  50 H50           -6.6017    -8.4009    -0.4762 H       
  51 H51           -8.9027    -8.2332    -1.3343 H       
  52 H52           -8.8839    -4.0334    -0.5428 H       
  53 H53           -6.5850    -4.2105     0.3189 H       
  54 H54           -2.2512    -7.3711    -1.5199 H       
  55 H55           -3.7198    -8.2662    -1.0616 H       
  56 H56           -3.5819    -6.2313    -3.3299 H       
  57 H57           -3.5761    -9.2828    -3.4020 H       
  58 H58           -3.6645    -8.2112    -4.8205 H       
  59 H59           -2.1986    -8.2322    -3.8109 H       
  60 H60           -5.6884    -8.2875    -2.5230 H       
  61 H61           -5.8157    -6.5276    -2.2891 H       
  62 H62           -5.7774    -7.2063    -3.9341 H       
  63 H63           -0.9343    -5.3922    -1.9135 H       
  64 H64            3.4081    -0.5818     1.3454 H       
  65 H65            3.1083     1.1389     0.9668 H       
  66 H66            3.4907    -0.1877     3.6512 H       
  67 H67            1.6722     2.2755     3.2802 H       
  68 H68           -0.1823     0.7674     2.9699 H       
  69 H69            0.7554    -0.6343     3.5772 H       
  70 H70            5.7351     0.9414     4.1747 H       
  71 H71            5.4047     2.6523     4.4988 H       
  72 H72            2.9861     2.9321     5.2253 H       
  73 H73            2.7084     2.0278     6.7247 H       
  74 H74            1.0492    -1.6330    -2.0805 H       
  75 H75            1.5048     0.7577    -2.4545 H       
  76 H76           -0.3542     2.3111    -2.8953 H       
  77 H77           -2.6687     1.4736    -2.9629 H       
  78 H78           -3.1236    -0.9186    -2.5972 H       
  79 H79          -10.9506    -4.3569    -0.4337 H       
  80 H80          -10.3179    -4.0513    -2.0691 H       
  81 H81          -11.9211    -4.7958    -1.8598 H       
@<TRIPOS>BOND
   1    1    3 1
   2    1   25 1
   3    1   28 1
   4    1   42 1
   5    2    3 1
   6    2    4 am
   7    2    5 2
   8    4    7 1
   9    4   43 1
  10    6    7 1
  11    6   34 1
  12    6   44 1
  13    6   45 1
  14    7    8 1
  15    7   46 1
  16    8    9 1
  17    8   24 1
  18    8   47 1
  19    9   10 1
  20    9   48 1
  21    9   49 1
  22   10   11 am
  23   10   20 1
  24   11   12 1
  25   11   18 2
  26   11   19 2
  27   12   13 ar
  28   12   17 ar
  29   13   14 ar
  30   13   50 1
  31   14   15 ar
  32   14   51 1
  33   15   16 ar
  34   15   40 1
  35   16   17 ar
  36   16   52 1
  37   17   53 1
  38   20   21 1
  39   20   54 1
  40   20   55 1
  41   21   22 1
  42   21   23 1
  43   21   56 1
  44   22   57 1
  45   22   58 1
  46   22   59 1
  47   23   60 1
  48   23   61 1
  49   23   62 1
  50   24   63 1
  51   25   26 1
  52   25   64 1
  53   25   65 1
  54   26   27 1
  55   26   29 1
  56   26   66 1
  57   27   28 1
  58   27   30 1
  59   27   67 1
  60   28   68 1
  61   28   69 1
  62   29   31 1
  63   30   33 1
  64   31   32 1
  65   31   70 1
  66   31   71 1
  67   32   33 1
  68   33   72 1
  69   33   73 1
  70   34   35 ar
  71   34   39 ar
  72   35   36 ar
  73   35   74 1
  74   36   37 ar
  75   36   75 1
  76   37   38 ar
  77   37   76 1
  78   38   39 ar
  79   38   77 1
  80   39   78 1
  81   40   41 1
  82   41   79 1
  83   41   80 1
  84   41   81 1

#	End of record

