#	Name: ASD01148486
#	Creating user name:	WinNT
#	Creation time:	15. 06. 2019 19:02

#	Modifying user name:	WinNT
#	Modification time:	15. 06. 2019 19:02

#	Program:	/corina/corina34_cracker 3.40 0067  02.08.2006

@<TRIPOS>MOLECULE
ASD01148486
  53   55    0    0    0
SMALL
NO_CHARGES


@<TRIPOS>ATOM
   1 C1             0.3638     1.8418     0.0682 C.ar    
   2 C2             0.4623     0.4639    -0.0070 C.ar    
   3 C3            -0.6830    -0.3073    -0.0944 C.ar    
   4 C4            -1.9249     0.2993    -0.1067 C.ar    
   5 C5            -2.0227     1.6762    -0.0315 C.ar    
   6 C6            -0.8789     2.4469     0.0616 C.ar    
   7 C7            -3.3771     2.3369    -0.0454 C.3     
   8 O8            -4.3696     1.4928     0.5726 O.3     
   9 C9            -3.3978     3.5770     0.8798 C.3     
  10 C10           -3.9249     3.0071     2.1831 C.2     
  11 N11           -4.4451     1.8512     1.9382 N.2     
  12 C12           -3.8550     3.6616     3.5042 C.ar    
  13 C13           -4.3822     3.0224     4.6295 C.ar    
  14 C14           -3.2566     4.9177     3.6307 C.ar    
  15 C15           -3.1915     5.5282     4.8628 C.ar    
  16 C16           -3.7237     4.8917     5.9867 C.ar    
  17 C17           -4.3171     3.6328     5.8613 C.ar    
  18 C18           -3.6538     5.5469     7.3090 C.2     
  19 O19           -4.2131     5.0468     8.2654 O.2     
  20 N20           -2.9699     6.6990     7.4549 N.am    
  21 C21           -4.8916     2.9464     7.0736 C.3     
  22 C22           -3.7867     2.7099    -1.4716 C.3     
  23 F23           -3.8259     1.5564    -2.2623 F       
  24 F24           -5.0525     3.3054    -1.4526 F       
  25 F25           -2.8563     3.6088    -2.0040 F       
  26 Cl26           2.0225    -0.2972     0.0079 Cl      
  27 C27           -2.9045     7.3117     8.6915 C.2     
  28 N28           -3.4985     6.7806     9.7072 N.2     
  29 O29           -3.4314     7.4086    10.9746 O.3     
  30 C30           -4.1332     6.7120    12.0062 C.3     
  31 C31           -0.5765    -1.8083    -0.1768 C.3     
  32 F32           -1.8583    -2.3630    -0.2570 F       
  33 F33            0.1567    -2.1620    -1.3146 F       
  34 F34            0.0710    -2.2932     0.9646 F       
  35 C35            1.6109     2.6825     0.1634 C.3     
  36 F36            1.2579     4.0347     0.2275 F       
  37 F37            2.3232     2.3314     1.3152 F       
  38 F38            2.4092     2.4619    -0.9640 F       
  39 H39           -2.8190    -0.3026    -0.1753 H       
  40 H40           -0.9559     3.5225     0.1203 H       
  41 H41           -2.3931     3.9785     1.0114 H       
  42 H42           -4.0724     4.3393     0.4901 H       
  43 H43           -4.8411     2.0496     4.5325 H       
  44 H44           -2.8449     5.4097     2.7618 H       
  45 H45           -2.7286     6.4991     4.9607 H       
  46 H46           -2.5236     7.0981     6.6917 H       
  47 H47           -5.8993     3.3187     7.2585 H       
  48 H48           -4.9280     1.8711     6.8993 H       
  49 H49           -4.2633     3.1530     7.9400 H       
  50 H50           -2.3565     8.2350     8.8084 H       
  51 H51           -3.7136     5.7124    12.1200 H       
  52 H52           -4.0337     7.2567    12.9451 H       
  53 H53           -5.1875     6.6353    11.7406 H       
@<TRIPOS>BOND
   1    1    2 ar
   2    1   35 1
   3    1    6 ar
   4    2    3 ar
   5    2   26 1
   6    3    4 ar
   7    3   31 1
   8    4    5 ar
   9    4   39 1
  10    5    6 ar
  11    5    7 1
  12    6   40 1
  13    7    8 1
  14    7    9 1
  15    7   22 1
  16    8   11 1
  17    9   10 1
  18    9   41 1
  19    9   42 1
  20   10   11 2
  21   10   12 1
  22   12   13 ar
  23   12   14 ar
  24   13   17 ar
  25   13   43 1
  26   14   15 ar
  27   14   44 1
  28   15   16 ar
  29   15   45 1
  30   16   17 ar
  31   16   18 1
  32   17   21 1
  33   18   19 2
  34   18   20 am
  35   20   27 1
  36   20   46 1
  37   21   47 1
  38   21   48 1
  39   21   49 1
  40   22   23 1
  41   22   24 1
  42   22   25 1
  43   27   28 2
  44   27   50 1
  45   28   29 1
  46   29   30 1
  47   30   51 1
  48   30   52 1
  49   30   53 1
  50   31   32 1
  51   31   33 1
  52   31   34 1
  53   35   36 1
  54   35   37 1
  55   35   38 1

#	End of record

