#	Name: ASD00172053
#	Creating user name:	WinNT
#	Creation time:	15. 06. 2019 18:33

#	Modifying user name:	WinNT
#	Modification time:	15. 06. 2019 18:33

#	Program:	/corina/corina34_cracker 3.40 0067  02.08.2006

@<TRIPOS>MOLECULE
ASD00172053
  50   53    0    0    0
SMALL
NO_CHARGES


@<TRIPOS>ATOM
   1 C1            -0.0229     1.4447     0.1004 C.ar    
   2 C2             0.0093     0.0519     0.0814 C.ar    
   3 C3            -1.1712    -0.6630     0.0664 C.ar    
   4 C4            -2.3848     0.0008     0.0697 C.ar    
   5 C5            -2.4226     1.3833     0.0885 C.ar    
   6 C6            -1.2482     2.1081     0.1095 C.ar    
   7 C7            -3.6704    -0.7853     0.0522 C.3     
   8 C8            -4.1127    -1.0716     1.4886 C.3     
   9 C9            -3.0724    -1.9045     2.2109 C.2     
  10 N10           -3.6932    -3.0530     2.5452 N.am    
  11 C11           -4.9678    -3.0615     2.1387 C.2     
  12 N12           -5.3113    -1.9279     1.5008 N.am    
  13 O13           -5.7300    -3.9897     2.3244 O.2     
  14 C14           -6.6220    -1.6074     0.9302 C.3     
  15 C15           -4.3730     0.2352     2.2406 C.3     
  16 O16           -1.9212    -1.6008     2.4398 O.2     
  17 C17           -3.0789    -4.1089     3.2332 C.ar    
  18 C18           -3.8306    -5.2006     3.6456 C.ar    
  19 C19           -3.2227    -6.2405     4.3239 C.ar    
  20 C20           -1.8660    -6.1936     4.5923 C.ar    
  21 C21           -1.1146    -5.1064     4.1822 C.ar    
  22 C22           -1.7169    -4.0670     3.4982 C.ar    
  23 Cl23           0.5872    -5.0511     4.5207 Cl      
  24 Cl24          -4.1622    -7.6061     4.8400 Cl      
  25 C25            1.2430     2.2187     0.1172 C.ar    
  26 C26            1.2108     3.6116     0.1362 C.ar    
  27 C27            2.3913     4.3265     0.1522 C.ar    
  28 C28            3.6049     3.6627     0.1494 C.ar    
  29 C29            3.6427     2.2801     0.1306 C.ar    
  30 C30            2.4683     1.5552     0.1198 C.ar    
  31 H31            0.9563    -0.4674     0.0781 H       
  32 H32           -1.1474    -1.7426     0.0516 H       
  33 H33           -3.3729     1.8966     0.0906 H       
  34 H34           -1.2789     3.1876     0.1246 H       
  35 H35           -4.4421    -0.2083    -0.4574 H       
  36 H36           -3.5135    -1.7267    -0.4742 H       
  37 H37           -7.3047    -2.4404     1.0976 H       
  38 H38           -7.0175    -0.7116     1.4090 H       
  39 H39           -6.5189    -1.4317    -0.1406 H       
  40 H40           -5.1585     0.7958     1.7337 H       
  41 H41           -4.6866     0.0113     3.2602 H       
  42 H42           -3.4595     0.8293     2.2635 H       
  43 H43           -4.8896    -5.2373     3.4370 H       
  44 H44           -1.3930    -7.0066     5.1230 H       
  45 H45           -1.1300    -3.2188     3.1780 H       
  46 H46            0.2638     4.1309     0.1381 H       
  47 H47            2.3675     5.4061     0.1666 H       
  48 H48            4.5262     4.2260     0.1617 H       
  49 H49            4.5930     1.7669     0.1285 H       
  50 H50            2.4989     0.4757     0.1051 H       
@<TRIPOS>BOND
   1    1    2 ar
   2    1   25 1
   3    1    6 ar
   4    2    3 ar
   5    2   31 1
   6    3    4 ar
   7    3   32 1
   8    4    5 ar
   9    4    7 1
  10    5    6 ar
  11    5   33 1
  12    6   34 1
  13    7    8 1
  14    7   35 1
  15    7   36 1
  16    8    9 1
  17    8   15 1
  18    8   12 1
  19    9   10 am
  20    9   16 2
  21   10   11 am
  22   10   17 1
  23   11   12 am
  24   11   13 2
  25   12   14 1
  26   14   37 1
  27   14   38 1
  28   14   39 1
  29   15   40 1
  30   15   41 1
  31   15   42 1
  32   17   18 ar
  33   17   22 ar
  34   18   19 ar
  35   18   43 1
  36   19   20 ar
  37   19   24 1
  38   20   21 ar
  39   20   44 1
  40   21   22 ar
  41   21   23 1
  42   22   45 1
  43   25   26 ar
  44   25   30 ar
  45   26   27 ar
  46   26   46 1
  47   27   28 ar
  48   27   47 1
  49   28   29 ar
  50   28   48 1
  51   29   30 ar
  52   29   49 1
  53   30   50 1

#	End of record

