#	Name: ASD01883593
#	Creating user name:	WinNT
#	Creation time:	15. 06. 2019 19:46

#	Modifying user name:	WinNT
#	Modification time:	15. 06. 2019 19:46

#	Program:	/corina/corina34_cracker 3.40 0067  02.08.2006

@<TRIPOS>MOLECULE
ASD01883593
  45   48    0    0    0
SMALL
NO_CHARGES


@<TRIPOS>ATOM
   1 C1             0.1578     1.5157    -1.5559 C.2     
   2 C2             0.1810     0.1827    -1.7661 C.2     
   3 N3             1.2234    -0.5757    -1.3342 N.am    
   4 C4             2.2642    -0.0237    -0.6837 C.2     
   5 C5             2.2901     1.3571    -0.4392 C.2     
   6 C6             1.2303     2.1384    -0.8772 C.2     
   7 O7             3.1881    -0.7267    -0.3051 O.2     
   8 Cl8            3.6281     2.0781     0.3995 Cl      
   9 C9             1.2225     3.5995    -0.6373 C.ar    
  10 C10            1.2796     4.4853    -1.7142 C.ar    
  11 C11            1.2723     5.8445    -1.4874 C.ar    
  12 C12            1.2082     6.3334    -0.1885 C.ar    
  13 C13            1.1513     5.4542     0.8859 C.ar    
  14 C14            1.1524     4.0939     0.6658 C.ar    
  15 O15            1.2016     7.6733     0.0315 O.3     
  16 C16            0.0020     8.3116     0.0456 C.ar    
  17 C17           -1.1830     7.5891    -0.0520 C.ar    
  18 C18           -2.3815     8.2842    -0.0326 C.ar    
  19 C19           -2.3611     9.6615     0.0820 C.ar    
  20 N20           -1.2201    10.3166     0.1727 N.ar    
  21 C21           -0.0589     9.6930     0.1634 C.ar    
  22 C22            1.2133    -2.0197    -1.5808 C.3     
  23 C23            1.8838    -2.3124    -2.9245 C.3     
  24 C24            1.2161    10.4892     0.2703 C.3     
  25 C25            2.0785    -3.7796    -3.3122 C.3     
  26 C26            1.0207    -2.9341    -4.0242 C.3     
  27 H27           -0.6753     2.1054    -1.9090 H       
  28 H28           -0.6408    -0.2885    -2.2848 H       
  29 H29            1.3298     4.1059    -2.7241 H       
  30 H30            1.3168     6.5306    -2.3204 H       
  31 H31            1.1015     5.8375     1.8944 H       
  32 H32            1.1078     3.4110     1.5013 H       
  33 H33           -1.1690     6.5129    -0.1410 H       
  34 H34           -3.3206     7.7561    -0.1067 H       
  35 H35           -3.2921    10.2086     0.0973 H       
  36 H36            1.7574    -2.5281    -0.7848 H       
  37 H37            0.1838    -2.3773    -1.6029 H       
  38 H38            2.6549    -1.6047    -3.2291 H       
  39 H39            1.4882    10.6003     1.3199 H       
  40 H40            2.0146     9.9693    -0.2590 H       
  41 H41            1.0677    11.4740    -0.1728 H       
  42 H42            2.9775    -4.0371    -3.8722 H       
  43 H43            1.7289    -4.5363    -2.6100 H       
  44 H44           -0.0249    -3.1346    -3.7904 H       
  45 H45            1.2237    -2.6354    -5.0527 H       
@<TRIPOS>BOND
   1    1    2 2
   2    1    6 1
   3    1   27 1
   4    2    3 1
   5    2   28 1
   6    3    4 am
   7    3   22 1
   8    4    5 1
   9    4    7 2
  10    5    6 2
  11    5    8 1
  12    6    9 1
  13    9   10 ar
  14    9   14 ar
  15   10   11 ar
  16   10   29 1
  17   11   12 ar
  18   11   30 1
  19   12   13 ar
  20   12   15 1
  21   13   14 ar
  22   13   31 1
  23   14   32 1
  24   15   16 1
  25   16   17 ar
  26   16   21 ar
  27   17   18 ar
  28   17   33 1
  29   18   19 ar
  30   18   34 1
  31   19   20 ar
  32   19   35 1
  33   20   21 ar
  34   21   24 1
  35   22   23 1
  36   22   36 1
  37   22   37 1
  38   23   25 1
  39   23   26 1
  40   23   38 1
  41   24   39 1
  42   24   40 1
  43   24   41 1
  44   25   26 1
  45   25   42 1
  46   25   43 1
  47   26   44 1
  48   26   45 1

#	End of record

