#	Name: ASD02500464
#	Creating user name:	WinNT
#	Creation time:	15. 06. 2019 20:22

#	Modifying user name:	WinNT
#	Modification time:	15. 06. 2019 20:22

#	Program:	/corina/corina34_cracker 3.40 0067  02.08.2006

@<TRIPOS>MOLECULE
ASD02500464
  64   68    0    0    0
SMALL
NO_CHARGES


@<TRIPOS>ATOM
   1 N1             1.4733     4.1757    -1.4763 N.ar    
   2 C2             2.4442     3.9317    -0.6300 C.ar    
   3 C3             3.5913     3.2382    -1.0103 C.ar    
   4 C4             3.7245     2.7932    -2.2946 C.ar    
   5 C5             2.6796     3.0566    -3.2005 C.ar    
   6 C6             2.7456     2.6309    -4.5367 C.ar    
   7 C7             1.7142     2.9058    -5.3822 C.ar    
   8 C8             0.5935     3.6047    -4.9392 C.ar    
   9 C9             0.4964     4.0322    -3.6506 C.ar    
  10 C10            1.5406     3.7678    -2.7476 C.ar    
  11 S11           -0.9322     4.9148    -3.1168 S.o2    
  12 O12           -0.4596     6.0683    -2.4348 O.2     
  13 O13           -1.8066     4.9768    -4.2352 O.2     
  14 N14           -1.6910     3.9783    -1.9813 N.am    
  15 C15           -2.1714     2.7198    -2.3263 C.ar    
  16 C16           -1.9119     1.6275    -1.5031 C.ar    
  17 C17           -2.3859     0.3809    -1.8418 C.ar    
  18 C18           -3.1288     0.2119    -3.0139 C.ar    
  19 C19           -3.3877     1.3107    -3.8384 C.ar    
  20 C20           -2.9157     2.5558    -3.4913 C.ar    
  21 C21           -3.6380    -1.1233    -3.3802 C.2     
  22 O22           -4.7496    -1.2397    -3.8591 O.2     
  23 N23           -2.8712    -2.2142    -3.1840 N.am    
  24 C24           -3.3281    -3.5451    -3.6120 C.3     
  25 C25           -2.2219    -4.1928    -4.4515 C.3     
  26 N26           -0.9649    -4.1824    -3.6913 N.3     
  27 C27           -0.5188    -2.8097    -3.4181 C.3     
  28 C28           -1.5526    -2.1044    -2.5418 C.3     
  29 C29            0.0784    -4.9461    -4.3886 C.3     
  30 C30            1.4058    -4.7944    -3.6430 C.3     
  31 C31           -0.3094    -6.4017    -4.4328 C.ar    
  32 C32           -0.0396    -7.1549    -5.5600 C.ar    
  33 C33           -0.3953    -8.4901    -5.6006 C.ar    
  34 C34           -1.0204    -9.0722    -4.5137 C.ar    
  35 C35           -1.2894    -8.3192    -3.3861 C.ar    
  36 C36           -0.9298    -6.9851    -3.3439 C.ar    
  37 H37            2.3527     4.2776     0.3890 H       
  38 H38            4.3746     3.0531    -0.2902 H       
  39 H39            4.6069     2.2544    -2.6067 H       
  40 H40            3.6095     2.0889    -4.8920 H       
  41 H41            1.7658     2.5779    -6.4100 H       
  42 H42           -0.2112     3.8110    -5.6294 H       
  43 H43           -1.8004     4.3076    -1.0755 H       
  44 H44           -1.3376     1.7587    -0.5979 H       
  45 H45           -2.1840    -0.4662    -1.2029 H       
  46 H46           -3.9610     1.1832    -4.7448 H       
  47 H47           -3.1195     3.4060    -4.1255 H       
  48 H48           -3.5317    -4.1614    -2.7363 H       
  49 H49           -4.2327    -3.4462    -4.2120 H       
  50 H50           -2.4973    -5.2213    -4.6848 H       
  51 H51           -2.0919    -3.6318    -5.3770 H       
  52 H52            0.4409    -2.8351    -2.9019 H       
  53 H53           -0.4125    -2.2680    -4.3580 H       
  54 H54           -1.2839    -1.0535    -2.4345 H       
  55 H55           -1.5822    -2.5796    -1.5612 H       
  56 H56            0.1873    -4.5681    -5.4051 H       
  57 H57            1.6863    -3.7416    -3.6110 H       
  58 H58            1.2969    -5.1724    -2.6265 H       
  59 H59            2.1799    -5.3611    -4.1604 H       
  60 H60            0.4488    -6.7002    -6.4092 H       
  61 H61           -0.1852    -9.0784    -6.4816 H       
  62 H62           -1.2990   -10.1151    -4.5457 H       
  63 H63           -1.7781    -8.7738    -2.5371 H       
  64 H64           -1.1366    -6.3977    -2.4615 H       
@<TRIPOS>BOND
   1    1    2 ar
   2    1   10 ar
   3    2    3 ar
   4    2   37 1
   5    3    4 ar
   6    3   38 1
   7    4    5 ar
   8    4   39 1
   9    5    6 ar
  10    5   10 ar
  11    6    7 ar
  12    6   40 1
  13    7    8 ar
  14    7   41 1
  15    8    9 ar
  16    8   42 1
  17    9   10 ar
  18    9   11 1
  19   11   12 2
  20   11   13 2
  21   11   14 am
  22   14   15 1
  23   14   43 1
  24   15   16 ar
  25   15   20 ar
  26   16   17 ar
  27   16   44 1
  28   17   18 ar
  29   17   45 1
  30   18   19 ar
  31   18   21 1
  32   19   20 ar
  33   19   46 1
  34   20   47 1
  35   21   22 2
  36   21   23 am
  37   23   24 1
  38   23   28 1
  39   24   25 1
  40   24   48 1
  41   24   49 1
  42   25   26 1
  43   25   50 1
  44   25   51 1
  45   26   27 1
  46   26   29 1
  47   27   28 1
  48   27   52 1
  49   27   53 1
  50   28   54 1
  51   28   55 1
  52   29   30 1
  53   29   31 1
  54   29   56 1
  55   30   57 1
  56   30   58 1
  57   30   59 1
  58   31   32 ar
  59   31   36 ar
  60   32   33 ar
  61   32   60 1
  62   33   34 ar
  63   33   61 1
  64   34   35 ar
  65   34   62 1
  66   35   36 ar
  67   35   63 1
  68   36   64 1

#	End of record

