#	Name: ASD01120163
#	Creating user name:	WinNT
#	Creation time:	15. 06. 2019 18:59

#	Modifying user name:	WinNT
#	Modification time:	15. 06. 2019 18:59

#	Program:	/corina/corina34_cracker 3.40 0067  02.08.2006

@<TRIPOS>MOLECULE
ASD01120163
  59   61    0    0    0
SMALL
NO_CHARGES


@<TRIPOS>ATOM
   1 C1            -1.0088     2.4173     1.9803 C.ar    
   2 C2            -0.6845     1.0556     1.9049 C.ar    
   3 C3            -1.6417     0.1218     1.5749 C.ar    
   4 C4            -2.9519     0.5399     1.3124 C.ar    
   5 C5            -3.2722     1.9181     1.3906 C.ar    
   6 C6            -2.2820     2.8464     1.7337 C.ar    
   7 N7            -3.9210    -0.3297     0.9863 N.ar    
   8 C8            -5.1395     0.0920     0.7454 C.ar    
   9 N9            -5.4847     1.3683     0.8064 N.ar    
  10 C10           -4.6047     2.3103     1.1196 C.ar    
  11 C11           -6.6584     5.1817     0.3899 C.ar    
  12 C12           -6.3218     3.9931     1.0249 C.ar    
  13 C13           -7.3226     3.1580     1.5052 C.ar    
  14 C14           -8.6491     3.5122     1.3499 C.ar    
  15 C15           -8.9805     4.6971     0.7162 C.ar    
  16 C16           -7.9863     5.5297     0.2369 C.ar    
  17 N17           -4.9788     3.6378     1.1799 N.pl3   
  18 Br18         -10.0128     2.3766     2.0031 Br      
  19 O19            0.5876     0.6528     2.1596 O.3     
  20 O20           -0.0465     3.3205     2.3081 O.3     
  21 C21            0.8554    -0.7478     2.0666 C.3     
  22 C22           -0.4389     4.6932     2.3687 C.3     
  23 C23            0.7685     5.5524     2.7495 C.3     
  24 C24            2.3293    -1.0074     2.3848 C.3     
  25 C25           -6.1935    -0.9221     0.3825 C.3     
  26 N26           -6.8528    -1.4018     1.6045 N.3     
  27 C27           -8.0379    -2.2075     1.2816 C.3     
  28 C28           -5.9157    -2.1576     2.4462 C.3     
  29 C29           -6.4868    -2.2823     3.8602 C.3     
  30 C30           -9.1815    -1.2846     0.8556 C.3     
  31 H31           -1.3834    -0.9253     1.5186 H       
  32 H32           -2.5216     3.8977     1.7945 H       
  33 H33           -5.8823     5.8351     0.0194 H       
  34 H34           -7.0642     2.2330     1.9991 H       
  35 H35          -10.0180     4.9718     0.5956 H       
  36 H36           -8.2483     6.4535    -0.2574 H       
  37 H37           -4.3098     4.3240     1.3298 H       
  38 H38            0.2298    -1.2855     2.7790 H       
  39 H39            0.6355    -1.0935     1.0565 H       
  40 H40           -0.8154     5.0068     1.3951 H       
  41 H41           -1.2217     4.8147     3.1174 H       
  42 H42            1.1451     5.2388     3.7231 H       
  43 H43            1.5514     5.4310     2.0008 H       
  44 H44            0.4693     6.5995     2.7957 H       
  45 H45            2.5336    -2.0758     2.3138 H       
  46 H46            2.9550    -0.4697     1.6724 H       
  47 H47            2.5493    -0.6618     3.3949 H       
  48 H48           -6.9327    -0.4597    -0.2716 H       
  49 H49           -5.7275    -1.7621    -0.1326 H       
  50 H50           -7.8010    -2.8922     0.4673 H       
  51 H51           -8.3396    -2.7781     2.1600 H       
  52 H52           -5.7694    -3.1520     2.0245 H       
  53 H53           -4.9598    -1.6353     2.4852 H       
  54 H54           -6.6137    -1.2885     4.2897 H       
  55 H55           -7.4524    -2.7862     3.8189 H       
  56 H56           -5.8012    -2.8608     4.4793 H       
  57 H57           -9.3538    -0.5379     1.6307 H       
  58 H58           -8.9176    -0.7859    -0.0771 H       
  59 H59          -10.0876    -1.8725     0.7095 H       
@<TRIPOS>BOND
   1    1    2 ar
   2    1   20 1
   3    1    6 ar
   4    2    3 ar
   5    2   19 1
   6    3    4 ar
   7    3   31 1
   8    4    5 ar
   9    4    7 ar
  10    5    6 ar
  11    5   10 ar
  12    6   32 1
  13    7    8 ar
  14    8    9 ar
  15    8   25 1
  16    9   10 ar
  17   10   17 1
  18   11   12 ar
  19   11   16 ar
  20   11   33 1
  21   12   13 ar
  22   12   17 1
  23   13   14 ar
  24   13   34 1
  25   14   15 ar
  26   14   18 1
  27   15   16 ar
  28   15   35 1
  29   16   36 1
  30   17   37 1
  31   19   21 1
  32   20   22 1
  33   21   24 1
  34   21   38 1
  35   21   39 1
  36   22   23 1
  37   22   40 1
  38   22   41 1
  39   23   42 1
  40   23   43 1
  41   23   44 1
  42   24   45 1
  43   24   46 1
  44   24   47 1
  45   25   26 1
  46   25   48 1
  47   25   49 1
  48   26   27 1
  49   26   28 1
  50   27   30 1
  51   27   50 1
  52   27   51 1
  53   28   29 1
  54   28   52 1
  55   28   53 1
  56   29   54 1
  57   29   55 1
  58   29   56 1
  59   30   57 1
  60   30   58 1
  61   30   59 1

#	End of record

