#	Name: ASD01912677
#	Creating user name:	WinNT
#	Creation time:	15. 06. 2019 20:00

#	Modifying user name:	WinNT
#	Modification time:	15. 06. 2019 20:00

#	Program:	/corina/corina34_cracker 3.40 0067  02.08.2006

@<TRIPOS>MOLECULE
ASD01912677
  43   46    0    0    0
SMALL
NO_CHARGES


@<TRIPOS>ATOM
   1 C1            -0.0175     1.3661    -0.0399 C.2     
   2 N2             0.0021    -0.0040     0.0056 N.pl3   
   3 C3            -1.2012    -0.6912     0.0642 C.2     
   4 C4            -2.3619    -0.0488     0.0767 C.2     
   5 N5            -2.4358     1.3307     0.0325 N.am    
   6 C6            -1.3028     2.0662    -0.0203 C.2     
   7 C7             1.2997     1.7823    -0.0927 C.2     
   8 C8             2.0538     0.6102    -0.0754 C.2     
   9 N9             1.2242    -0.4046    -0.0168 N.2     
  10 O10           -1.3507     3.2825    -0.0594 O.2     
  11 C11           -3.6826     1.9657     0.0474 C.ar    
  12 C12            3.5577     0.5236    -0.1175 C.3     
  13 O13            4.1091     1.8406    -0.1789 O.3     
  14 C14            5.4637     1.9409    -0.2228 C.ar    
  15 C15            6.0664     3.1890    -0.2834 C.ar    
  16 C16            7.4435     3.2883    -0.3280 C.ar    
  17 C17            8.2211     2.1451    -0.3125 C.ar    
  18 C18            7.6228     0.9000    -0.2527 C.ar    
  19 C19            6.2463     0.7956    -0.2016 C.ar    
  20 C20           -4.0616     2.7283     1.1448 C.ar    
  21 C21           -5.2927     3.3553     1.1594 C.ar    
  22 C22           -6.1495     3.2261     0.0831 C.ar    
  23 C23           -5.7759     2.4657    -1.0165 C.ar    
  24 C24           -4.5401     1.8392    -1.0371 C.ar    
  25 O25           -6.6199     2.3393    -2.0742 O.3     
  26 C26           -7.8755     3.0161    -1.9867 C.3     
  27 H27           -1.1932    -1.7705     0.0999 H       
  28 H28           -3.2767    -0.6210     0.1226 H       
  29 H29            1.6658     2.7974    -0.1380 H       
  30 H30            3.9180     0.0203     0.7797 H       
  31 H31            3.8647    -0.0402    -0.9984 H       
  32 H32            5.4594     4.0822    -0.2959 H       
  33 H33            7.9132     4.2596    -0.3755 H       
  34 H34            9.2976     2.2248    -0.3475 H       
  35 H35            8.2323     0.0085    -0.2414 H       
  36 H36            5.7794    -0.1772    -0.1548 H       
  37 H37           -3.3938     2.8308     1.9874 H       
  38 H38           -5.5860     3.9472     2.0138 H       
  39 H39           -7.1113     3.7171     0.0975 H       
  40 H40           -4.2477     1.2472    -1.8918 H       
  41 H41           -7.7042     4.0867    -1.8750 H       
  42 H42           -8.4510     2.8329    -2.8941 H       
  43 H43           -8.4291     2.6448    -1.1242 H       
@<TRIPOS>BOND
   1    1    2 1
   2    1    7 2
   3    1    6 1
   4    2    3 1
   5    2    9 1
   6    3    4 2
   7    3   27 1
   8    4    5 1
   9    4   28 1
  10    5    6 am
  11    5   11 1
  12    6   10 2
  13    7    8 1
  14    7   29 1
  15    8    9 2
  16    8   12 1
  17   11   20 ar
  18   11   24 ar
  19   12   13 1
  20   12   30 1
  21   12   31 1
  22   13   14 1
  23   14   15 ar
  24   14   19 ar
  25   15   16 ar
  26   15   32 1
  27   16   17 ar
  28   16   33 1
  29   17   18 ar
  30   17   34 1
  31   18   19 ar
  32   18   35 1
  33   19   36 1
  34   20   21 ar
  35   20   37 1
  36   21   22 ar
  37   21   38 1
  38   22   23 ar
  39   22   39 1
  40   23   24 ar
  41   23   25 1
  42   24   40 1
  43   25   26 1
  44   26   41 1
  45   26   42 1
  46   26   43 1

#	End of record

