#	Name: ASD01028160
#	Creating user name:	WinNT
#	Creation time:	15. 06. 2019 18:56

#	Modifying user name:	WinNT
#	Modification time:	15. 06. 2019 18:56

#	Program:	/corina/corina34_cracker 3.40 0067  02.08.2006

@<TRIPOS>MOLECULE
ASD01028160
  48   50    0    0    0
SMALL
NO_CHARGES


@<TRIPOS>ATOM
   1 C1            -0.0216     1.3925    -0.0366 C.ar    
   2 C2             0.0073    -0.0125    -0.0007 C.ar    
   3 C3             1.2474    -0.6603     0.0302 C.ar    
   4 C4             2.3941     0.1142     0.0240 C.ar    
   5 C5             2.2851     1.4927    -0.0122 C.ar    
   6 N6             1.1070     2.0848    -0.0410 N.ar    
   7 C7            -1.2455    -0.7890     0.0048 C.2     
   8 O8            -2.3153    -0.2167     0.0888 O.2     
   9 N9            -1.2055    -2.1333    -0.0834 N.am    
  10 N10           -1.2348     2.0548    -0.0733 N.pl3   
  11 C11           -1.2743     3.5166     0.0136 C.3     
  12 C12           -4.7640     4.5650     1.0119 C.ar    
  13 C13           -3.4547     4.1332     1.1082 C.ar    
  14 C14           -2.7053     3.9851    -0.0488 C.ar    
  15 C15           -3.3035     4.2788    -1.2647 C.ar    
  16 C16           -4.6176     4.7063    -1.2828 C.ar    
  17 N17           -5.3005     4.8353    -0.1620 N.ar    
  18 N18           -2.4981    -4.2190    -0.1597 N.pl3   
  19 N19           -3.8602    -4.5433    -0.1205 N.2     
  20 C20           -4.5463    -3.4339    -0.0195 C.2     
  21 C21           -3.6510    -2.3615     0.0096 C.2     
  22 C22           -2.3902    -2.8676    -0.0782 C.2     
  23 C23           -6.0480    -3.3302     0.0527 C.3     
  24 C24           -6.5902    -2.8350    -1.2896 C.3     
  25 C25           -6.6398    -4.7060     0.3655 C.3     
  26 C26           -6.4387    -2.3443     1.1555 C.3     
  27 H27            1.3080    -1.7382     0.0585 H       
  28 H28            3.3670    -0.3541     0.0475 H       
  29 H29            3.1813     2.0953    -0.0170 H       
  30 H30           -0.3522    -2.5898    -0.1504 H       
  31 H31           -2.0598     1.5514    -0.1567 H       
  32 H32           -0.8279     3.8368     0.9551 H       
  33 H33           -0.7150     3.9453    -0.8180 H       
  34 H34           -5.3559     4.6786     1.9081 H       
  35 H35           -3.0208     3.9137     2.0726 H       
  36 H36           -2.7495     4.1752    -2.1859 H       
  37 H37           -5.0909     4.9371    -2.2257 H       
  38 H38           -1.7627    -4.8478    -0.2286 H       
  39 H39           -3.9127    -1.3166     0.0878 H       
  40 H40           -6.3118    -3.5374    -2.0753 H       
  41 H41           -7.6763    -2.7600    -1.2374 H       
  42 H42           -6.1686    -1.8548    -1.5124 H       
  43 H43           -6.2536    -5.0588     1.3217 H       
  44 H44           -7.7260    -4.6310     0.4177 H       
  45 H45           -6.3615    -5.4084    -0.4202 H       
  46 H46           -6.0171    -1.3641     0.9327 H       
  47 H47           -7.5249    -2.2692     1.2077 H       
  48 H48           -6.0525    -2.6970     2.1118 H       
@<TRIPOS>BOND
   1    1    2 ar
   2    1    6 ar
   3    1   10 1
   4    2    3 ar
   5    2    7 1
   6    3    4 ar
   7    3   27 1
   8    4    5 ar
   9    4   28 1
  10    5    6 ar
  11    5   29 1
  12    7    8 2
  13    7    9 am
  14    9   22 1
  15    9   30 1
  16   10   11 1
  17   10   31 1
  18   11   14 1
  19   11   32 1
  20   11   33 1
  21   12   13 ar
  22   12   17 ar
  23   12   34 1
  24   13   14 ar
  25   13   35 1
  26   14   15 ar
  27   15   16 ar
  28   15   36 1
  29   16   17 ar
  30   16   37 1
  31   18   19 1
  32   18   22 1
  33   18   38 1
  34   19   20 2
  35   20   21 1
  36   20   23 1
  37   21   22 2
  38   21   39 1
  39   23   24 1
  40   23   25 1
  41   23   26 1
  42   24   40 1
  43   24   41 1
  44   24   42 1
  45   25   43 1
  46   25   44 1
  47   25   45 1
  48   26   46 1
  49   26   47 1
  50   26   48 1

#	End of record

