#	Name: ASD09116081
#	Creating user name:	WinNT
#	Creation time:	15. 06. 2019 21:20

#	Modifying user name:	WinNT
#	Modification time:	15. 06. 2019 21:20

#	Program:	/corina/corina34_cracker 3.40 0067  02.08.2006

@<TRIPOS>MOLECULE
ASD09116081
  64   69    0    0    0
SMALL
NO_CHARGES


@<TRIPOS>ATOM
   1 C1             0.2636     1.2891    -1.3288 C.ar    
   2 N2             0.2298    -0.0848    -1.1011 N.pl3   
   3 N3             1.2524    -0.8720    -0.5474 N.2     
   4 C4             0.8090    -2.1054    -0.5099 C.2     
   5 N5            -0.4326    -2.1410    -1.0075 N.2     
   6 C6            -0.8022    -0.9300    -1.3653 C.2     
   7 N7            -2.0189    -0.5807    -1.9189 N.pl3   
   8 N8             1.5190    -3.2054    -0.0287 N.pl3   
   9 C9             1.4021     2.0384    -0.9985 C.ar    
  10 N10           -0.7787     1.9092    -1.8667 N.ar    
  11 C11           -0.7518     3.2126    -2.0854 C.ar    
  12 N12            0.2865     3.9556    -1.7892 N.ar    
  13 C13            1.3986     3.4153    -1.2423 C.ar    
  14 C14            0.8961    -4.4529     0.0638 C.ar    
  15 C15           -0.4749    -4.5283     0.2786 C.ar    
  16 C16           -1.0670    -5.7729     0.3315 C.ar    
  17 C17           -0.3114    -6.9203     0.1757 C.ar    
  18 C18            1.0607    -6.8780     0.0301 C.ar    
  19 C19            1.6432    -5.6054    -0.0641 C.ar    
  20 C20           -1.0428    -8.2422     0.0800 C.3     
  21 C21           -1.0280    -8.7993    -1.3415 C.3     
  22 N22            0.3249    -8.9884    -1.8423 N.3     
  23 C23            0.9763   -10.0005    -1.0412 C.3     
  24 C24            1.4809    -9.3812     0.2528 C.3     
  25 C25            2.0761    -7.9953     0.0344 C.3     
  26 C26            0.3127    -9.3675    -3.2615 C.3     
  27 C27           -0.4513    -8.3136    -4.0821 C.3     
  28 C28            0.5515    -7.7388    -5.1038 C.3     
  29 C29            1.6179    -8.8516    -5.2568 C.3     
  30 C30            1.7531    -9.3963    -3.8132 C.3     
  31 Cl31          -2.1451     3.9692    -2.7924 Cl      
  32 C32            2.5998     4.0316    -0.8579 C.2     
  33 C33            3.5196     3.2301    -0.3446 C.2     
  34 S34            2.9426     1.5727    -0.2921 S.3     
  35 C35            2.8279     5.5124    -1.0198 C.3     
  36 H36           -2.6931    -1.2601    -2.0762 H       
  37 H37           -2.1989     0.3440    -2.1502 H       
  38 H38            2.4450    -3.1044     0.2418 H       
  39 H39           -1.0640    -3.6316     0.4019 H       
  40 H40           -2.1313    -5.8520     0.4966 H       
  41 H41            2.7070    -5.5258    -0.2324 H       
  42 H42           -0.5659    -8.9603     0.7471 H       
  43 H43           -2.0768    -8.0987     0.3938 H       
  44 H44           -1.5462    -9.7582    -1.3512 H       
  45 H45           -1.5549    -8.1071    -1.9983 H       
  46 H46            0.2663   -10.7950    -0.8113 H       
  47 H47            1.8164   -10.4183    -1.5960 H       
  48 H48            0.6506    -9.3030     0.9547 H       
  49 H49            2.2443   -10.0305     0.6815 H       
  50 H50            2.6008    -7.9902    -0.9210 H       
  51 H51            2.8013    -7.8013     0.8246 H       
  52 H52           -0.1539   -10.3451    -3.3825 H       
  53 H53           -1.2881    -8.7799    -4.6021 H       
  54 H54           -0.8130    -7.5208    -3.4273 H       
  55 H55            0.0584    -7.5493    -6.0572 H       
  56 H56            1.0058    -6.8253    -4.7200 H       
  57 H57            1.2678    -9.6317    -5.9328 H       
  58 H58            2.5639    -8.4352    -5.6027 H       
  59 H59            2.4014    -8.7505    -3.2209 H       
  60 H60            2.1368   -10.4165    -3.8247 H       
  61 H61            4.4922     3.5521    -0.0028 H       
  62 H62            2.4992     6.0312    -0.1193 H       
  63 H63            3.8893     5.7010    -1.1808 H       
  64 H64            2.2603     5.8759    -1.8763 H       
@<TRIPOS>BOND
   1    1    2 1
   2    1    9 ar
   3    1   10 ar
   4    2    3 1
   5    2    6 1
   6    3    4 2
   7    4    5 1
   8    4    8 1
   9    5    6 2
  10    6    7 1
  11    7   36 1
  12    7   37 1
  13    8   14 1
  14    8   38 1
  15    9   13 ar
  16    9   34 1
  17   10   11 ar
  18   11   12 ar
  19   11   31 1
  20   12   13 ar
  21   13   32 1
  22   14   15 ar
  23   14   19 ar
  24   15   16 ar
  25   15   39 1
  26   16   17 ar
  27   16   40 1
  28   17   18 ar
  29   17   20 1
  30   18   19 ar
  31   18   25 1
  32   19   41 1
  33   20   21 1
  34   20   42 1
  35   20   43 1
  36   21   22 1
  37   21   44 1
  38   21   45 1
  39   22   23 1
  40   22   26 1
  41   23   24 1
  42   23   46 1
  43   23   47 1
  44   24   25 1
  45   24   48 1
  46   24   49 1
  47   25   50 1
  48   25   51 1
  49   26   27 1
  50   26   30 1
  51   26   52 1
  52   27   28 1
  53   27   53 1
  54   27   54 1
  55   28   29 1
  56   28   55 1
  57   28   56 1
  58   29   30 1
  59   29   57 1
  60   29   58 1
  61   30   59 1
  62   30   60 1
  63   32   33 2
  64   32   35 1
  65   33   34 1
  66   33   61 1
  67   35   62 1
  68   35   63 1
  69   35   64 1

#	End of record

