#	Name: ASD03180028
#	Creating user name:	WinNT
#	Creation time:	15. 06. 2019 20:33

#	Modifying user name:	WinNT
#	Modification time:	15. 06. 2019 20:33

#	Program:	/corina/corina34_cracker 3.40 0067  02.08.2006

@<TRIPOS>MOLECULE
ASD03180028
  50   52    0    0    0
SMALL
NO_CHARGES


@<TRIPOS>ATOM
   1 C1             7.4412     3.6370     1.7861 C.ar    
   2 C2             7.1998     4.9760     2.0306 C.ar    
   3 C3             5.9921     5.5390     1.6628 C.ar    
   4 C4             5.0260     4.7631     1.0499 C.ar    
   5 C5             5.2677     3.4244     0.8046 C.ar    
   6 C6             6.4749     2.8610     1.1737 C.ar    
   7 S7             4.0358     2.4352     0.0245 S.o2    
   8 O8             2.7829     3.0140     0.3628 O.2     
   9 N9             4.2143     2.6290    -1.6104 N.am    
  10 O10            4.3688     1.0830     0.3070 O.2     
  11 C11            3.4093     3.6248    -2.3222 C.3     
  12 C12            5.1773     1.8048    -2.3450 C.3     
  13 C13            4.4595     0.6457    -2.9871 C.ar    
  14 C14            4.1917     4.9066    -2.4478 C.2     
  15 N15            3.6470     5.9703    -3.0711 N.am    
  16 C16            4.4078     7.1267    -3.2752 C.ar    
  17 O17            5.3115     4.9811    -1.9880 O.2     
  18 C18            4.0097     0.7476    -4.2903 C.ar    
  19 C19            3.3512    -0.3156    -4.8793 C.ar    
  20 C20            3.1430    -1.4808    -4.1654 C.ar    
  21 C21            3.5936    -1.5831    -2.8626 C.ar    
  22 C22            4.2559    -0.5214    -2.2750 C.ar    
  23 C23            4.2324     7.8804    -4.4287 C.ar    
  24 C24            4.9845     9.0214    -4.6280 C.ar    
  25 C25            5.9122     9.4142    -3.6808 C.ar    
  26 C26            6.0901     8.6657    -2.5306 C.ar    
  27 C27            5.3354     7.5262    -2.3227 C.ar    
  28 C28            2.4243    -2.6395    -4.8072 C.3     
  29 Cl29           7.2564     9.1621    -1.3444 Cl      
  30 H30            8.3865     3.1982     2.0695 H       
  31 H31            7.9547     5.5821     2.5094 H       
  32 H32            5.8033     6.5849     1.8545 H       
  33 H33            4.0822     5.2028     0.7632 H       
  34 H34            6.6636     1.8150     0.9824 H       
  35 H35            3.1634     3.2503    -3.3159 H       
  36 H36            2.4902     3.8130    -1.7672 H       
  37 H37            5.6573     2.4072    -3.1162 H       
  38 H38            5.9328     1.4275    -1.6558 H       
  39 H39            2.7276     5.9341    -3.3781 H       
  40 H40            4.1723     1.6580    -4.8481 H       
  41 H41            2.9992    -0.2357    -5.8972 H       
  42 H42            3.4306    -2.4933    -2.3047 H       
  43 H43            4.6112    -0.6026    -1.2583 H       
  44 H44            3.5086     7.5741    -5.1695 H       
  45 H45            4.8481     9.6074    -5.5249 H       
  46 H46            6.4994    10.3067    -3.8392 H       
  47 H47            5.4708     6.9447    -1.4227 H       
  48 H48            3.1483    -3.2873    -5.3016 H       
  49 H49            1.8927    -3.2059    -4.0426 H       
  50 H50            1.7122    -2.2635    -5.5418 H       
@<TRIPOS>BOND
   1    1    2 ar
   2    1    6 ar
   3    1   30 1
   4    2    3 ar
   5    2   31 1
   6    3    4 ar
   7    3   32 1
   8    4    5 ar
   9    4   33 1
  10    5    6 ar
  11    5    7 1
  12    6   34 1
  13    7    8 2
  14    7    9 am
  15    7   10 2
  16    9   11 1
  17    9   12 1
  18   11   14 1
  19   11   35 1
  20   11   36 1
  21   12   13 1
  22   12   37 1
  23   12   38 1
  24   13   18 ar
  25   13   22 ar
  26   14   15 am
  27   14   17 2
  28   15   16 1
  29   15   39 1
  30   16   23 ar
  31   16   27 ar
  32   18   19 ar
  33   18   40 1
  34   19   20 ar
  35   19   41 1
  36   20   21 ar
  37   20   28 1
  38   21   22 ar
  39   21   42 1
  40   22   43 1
  41   23   24 ar
  42   23   44 1
  43   24   25 ar
  44   24   45 1
  45   25   26 ar
  46   25   46 1
  47   26   27 ar
  48   26   29 1
  49   27   47 1
  50   28   48 1
  51   28   49 1
  52   28   50 1

#	End of record

