#	Name: ASD08150533
#	Creating user name:	WinNT
#	Creation time:	15. 06. 2019 21:16

#	Modifying user name:	WinNT
#	Modification time:	15. 06. 2019 21:16

#	Program:	/corina/corina34_cracker 3.40 0067  02.08.2006

@<TRIPOS>MOLECULE
ASD08150533
  30   32    0    0    0
SMALL
NO_CHARGES


@<TRIPOS>ATOM
   1 N1            -0.0155     1.2943     0.0092 N.2     
   2 C2             0.0021    -0.0041     0.0020 C.2     
   3 N3             1.1489    -0.7358    -0.0124 N.am    
   4 C4             2.3563    -0.1245    -0.0206 C.2     
   5 C5             2.3712     1.3446    -0.0133 C.ar    
   6 C6             3.5619     2.0696    -0.0204 C.ar    
   7 C7             3.5220     3.4358    -0.0127 C.ar    
   8 C8             2.3053     4.1107     0.0025 C.ar    
   9 C9             1.1131     3.4160     0.0097 C.ar    
  10 C10            1.1301     2.0206     0.0021 C.ar    
  11 O11            3.3903    -0.7671    -0.0331 O.2     
  12 F12            2.2910     5.4616     0.0108 F       
  13 C13            1.0794    -2.1350    -0.0184 C.ar    
  14 C14            1.0564    -2.8364     1.1814 C.ar    
  15 C15            0.9878    -4.2166     1.1715 C.ar    
  16 C16            0.9422    -4.8992    -0.0304 C.ar    
  17 C17            0.9650    -4.2039    -1.2252 C.ar    
  18 C18            1.0277    -2.8238    -1.2224 C.ar    
  19 Cl19           1.1142    -1.9797     2.6902 Cl      
  20 C20           -1.3144    -0.7375     0.0106 C.3     
  21 Cl21          -2.6666     0.4550     0.0300 Cl      
  22 H22            4.5110     1.5544    -0.0315 H       
  23 H23            4.4446     3.9973    -0.0181 H       
  24 H24            0.1735     3.9483     0.0219 H       
  25 H25            0.9702    -4.7626     2.1031 H       
  26 H26            0.8890    -5.9779    -0.0357 H       
  27 H27            0.9292    -4.7402    -2.1620 H       
  28 H28            1.0406    -2.2814    -2.1563 H       
  29 H29           -1.3903    -1.3584    -0.8820 H       
  30 H30           -1.3733    -1.3679     0.8979 H       
@<TRIPOS>BOND
   1    1    2 2
   2    1   10 1
   3    2    3 1
   4    2   20 1
   5    3    4 am
   6    3   13 1
   7    4    5 1
   8    4   11 2
   9    5    6 ar
  10    5   10 ar
  11    6    7 ar
  12    6   22 1
  13    7    8 ar
  14    7   23 1
  15    8    9 ar
  16    8   12 1
  17    9   10 ar
  18    9   24 1
  19   13   14 ar
  20   13   18 ar
  21   14   15 ar
  22   14   19 1
  23   15   16 ar
  24   15   25 1
  25   16   17 ar
  26   16   26 1
  27   17   18 ar
  28   17   27 1
  29   18   28 1
  30   20   21 1
  31   20   29 1
  32   20   30 1

#	End of record

