#	Name: ASD01140055
#	Creating user name:	WinNT
#	Creation time:	15. 06. 2019 18:59

#	Modifying user name:	WinNT
#	Modification time:	15. 06. 2019 18:59

#	Program:	/corina/corina34_cracker 3.40 0067  02.08.2006

@<TRIPOS>MOLECULE
ASD01140055
  57   60    0    0    0
SMALL
NO_CHARGES


@<TRIPOS>ATOM
   1 C1             0.0544     3.2802    -1.1398 C.3     
   2 C2            -0.3301     1.8012    -1.1685 C.3     
   3 C3             0.0734     1.1312     0.1469 C.3     
   4 C4             1.5830     1.2788     0.3428 C.3     
   5 C5             1.9680     2.7551     0.3971 C.3     
   6 C6             1.5587     3.4339    -0.9087 C.3     
   7 C7             2.0267     0.5443     1.6049 C.3     
   8 C8             3.5455     0.6745     1.7762 C.3     
   9 C9             4.1021     1.4808     0.6032 C.3     
  10 C10            3.4832     2.8776     0.6142 C.3     
  11 C11            5.5940     1.5306     0.5748 C.3     
  12 C12            6.1663     2.9467     0.7989 C.3     
  13 C13            5.6571     3.8761    -0.2723 C.3     
  14 C14            4.1300     3.7926    -0.4087 C.3     
  15 C15            6.3860     0.7210     1.6116 C.3     
  16 C16            7.8332     1.2246     1.3232 C.3     
  17 C17            7.6820     2.6517     0.7378 C.3     
  18 H18           -1.4100     1.7113    -1.3008 H       
  19 C19            1.2731     3.4505     1.5725 C.3     
  20 C20            5.8988     3.4997     2.1969 C.3     
  21 C21            8.4243     3.6490     1.5853 C.2     
  22 C22            8.8832     4.9534     0.9861 C.3     
  23 O23            8.6524     3.4042     2.7456 O.2     
  24 H24            2.0740     0.8167    -0.5241 H       
  25 O25            0.3306     1.1546    -2.2580 O.3     
  26 H26           -0.2013     3.7298    -2.1060 H       
  27 H27           -0.5080     3.7943    -0.3647 H       
  28 H28           -0.4710     1.5736     0.9745 H       
  29 H29           -0.1744     0.0662     0.0928 H       
  30 H30            2.0969     2.9784    -1.7414 H       
  31 H31            1.8052     4.4962    -0.8594 H       
  32 H32            1.5205     0.9412     2.4806 H       
  33 H33            1.7734    -0.5168     1.5065 H       
  34 H34            3.7639     1.1868     2.7120 H       
  35 H35            3.9962    -0.3175     1.7847 H       
  36 H36            3.7761     0.9743    -0.3260 H       
  37 H37            3.5770     3.3153     1.6133 H       
  38 H38            5.9294     1.1825    -0.4296 H       
  39 H39            5.9432     4.9089    -0.0308 H       
  40 H40            6.1233     3.6205    -1.2335 H       
  41 H41            3.8874     3.4407    -1.4197 H       
  42 H42            3.7120     4.8032    -0.3047 H       
  43 H43            6.0827     0.9300     2.6263 H       
  44 H44            6.3143    -0.3469     1.3947 H       
  45 H45            8.4068     1.2528     2.2464 H       
  46 H46            8.3105     0.5708     0.5951 H       
  47 H47            8.0207     2.6833    -0.2919 H       
  48 H48            1.5722     2.9729     2.5056 H       
  49 H49            1.5603     4.5017     1.5940 H       
  50 H50            0.1924     3.3714     1.4541 H       
  51 H51            6.4730     2.9313     2.9285 H       
  52 H52            6.1964     4.5476     2.2362 H       
  53 H53            4.8361     3.4151     2.4239 H       
  54 H54            8.5890     4.9948    -0.0626 H       
  55 H55            8.4243     5.7822     1.5252 H       
  56 H56            9.9680     5.0265     1.0624 H       
  57 H57            0.1110     1.5219    -3.1251 H       
@<TRIPOS>BOND
   1    1    2 1
   2    1    6 1
   3    1   26 1
   4    1   27 1
   5    2    3 1
   6    2   18 1
   7    2   25 1
   8    3    4 1
   9    3   28 1
  10    3   29 1
  11    4    5 1
  12    4    7 1
  13    4   24 1
  14    5    6 1
  15    5   19 1
  16    5   10 1
  17    6   30 1
  18    6   31 1
  19    7    8 1
  20    7   32 1
  21    7   33 1
  22    8    9 1
  23    8   34 1
  24    8   35 1
  25    9   10 1
  26    9   11 1
  27    9   36 1
  28   10   14 1
  29   10   37 1
  30   11   12 1
  31   11   15 1
  32   11   38 1
  33   12   13 1
  34   12   20 1
  35   12   17 1
  36   13   14 1
  37   13   39 1
  38   13   40 1
  39   14   41 1
  40   14   42 1
  41   15   16 1
  42   15   43 1
  43   15   44 1
  44   16   17 1
  45   16   45 1
  46   16   46 1
  47   17   21 1
  48   17   47 1
  49   19   48 1
  50   19   49 1
  51   19   50 1
  52   20   51 1
  53   20   52 1
  54   20   53 1
  55   21   22 1
  56   21   23 2
  57   22   54 1
  58   22   55 1
  59   22   56 1
  60   25   57 1

#	End of record

