#	Name: ASD05720064
#	Creating user name:	WinNT
#	Creation time:	15. 06. 2019 21:01

#	Modifying user name:	WinNT
#	Modification time:	15. 06. 2019 21:01

#	Program:	/corina/corina34_cracker 3.40 0067  02.08.2006

@<TRIPOS>MOLECULE
ASD05720064
  18   19    0    0    0
SMALL
NO_CHARGES


@<TRIPOS>ATOM
   1 O1            -0.0161     1.3335     0.0094 O.3     
   2 C2             0.0021    -0.0041     0.0020 C.2     
   3 N3             1.2348    -0.5293    -0.0126 N.am    
   4 C4             2.2183     0.5645    -0.0161 C.3     
   5 C5             1.3508     1.8380    -0.0010 C.3     
   6 O6            -1.0070    -0.6809     0.0087 O.2     
   7 C7             3.0750     0.5129    -1.2827 C.3     
   8 C8             3.9277    -0.7373    -1.5083 C.3     
   9 C9             2.6806    -0.4976    -2.3616 C.3     
  10 H10            1.4444    -1.4764    -0.0197 H       
  11 H11            2.8457     0.5181     0.8740 H       
  12 H12            1.5314     2.4340    -0.8956 H       
  13 H13            1.5485     2.4243     0.8964 H       
  14 H14            3.4846     1.4676    -1.6124 H       
  15 H15            4.8980    -0.6051    -1.9869 H       
  16 H16            3.8782    -1.5230    -0.7544 H       
  17 H17            1.8107    -1.1256    -2.1692 H       
  18 H18            2.8305    -0.2077    -3.4016 H       
@<TRIPOS>BOND
   1    1    2 1
   2    1    5 1
   3    2    3 am
   4    2    6 2
   5    3    4 1
   6    3   10 1
   7    4    5 1
   8    4    7 1
   9    4   11 1
  10    5   12 1
  11    5   13 1
  12    7    8 1
  13    7    9 1
  14    7   14 1
  15    8    9 1
  16    8   15 1
  17    8   16 1
  18    9   17 1
  19    9   18 1

#	End of record

