#	Name: ASD01815769
#	Creating user name:	WinNT
#	Creation time:	15. 06. 2019 19:34

#	Modifying user name:	WinNT
#	Modification time:	15. 06. 2019 19:34

#	Program:	/corina/corina34_cracker 3.40 0067  02.08.2006

@<TRIPOS>MOLECULE
ASD01815769
  62   67    0    0    0
SMALL
NO_CHARGES


@<TRIPOS>ATOM
   1 C1            -0.0305     1.2029     0.2179 C.ar    
   2 C2             0.0056    -0.1862     0.1530 C.ar    
   3 C3             1.1918    -0.8554     0.0970 C.ar    
   4 C4             2.3975    -0.1375     0.1046 C.ar    
   5 C5             2.3569     1.2767     0.1708 C.ar    
   6 C6             1.1227     1.9321     0.2271 C.ar    
   7 C7             3.6402    -0.8025     0.0472 C.ar    
   8 C8             4.8053    -0.1120     0.0539 C.ar    
   9 C9             4.8207     1.2900     0.1183 C.ar    
  10 C10            3.6165     2.0148     0.1782 C.ar    
  11 C11            6.0778     2.0491     0.1252 C.2     
  12 N12            5.9914     3.3982     0.1884 N.am    
  13 C13            4.7813     4.0086     0.2432 C.2     
  14 N14            3.6554     3.3565     0.2379 N.2     
  15 C15            7.2139     4.2053     0.1983 C.3     
  16 C16            7.2167     5.1459    -1.0107 C.3     
  17 C17            7.2661     5.0406     1.4812 C.3     
  18 C18            8.5057     5.9383     1.4463 C.3     
  19 O19            8.4608     6.7652     0.2817 O.3     
  20 C20            8.4582     6.0395    -0.9494 C.3     
  21 O21            7.3371     4.1722     2.6139 O.3     
  22 O22            7.1567     1.4862     0.0763 O.2     
  23 C23            3.6719    -2.3076    -0.0225 C.3     
  24 C24            3.5280    -2.7473    -1.4567 C.ar    
  25 C25            4.6454    -2.9233    -2.2601 C.ar    
  26 C26            4.4803    -3.3280    -3.5721 C.ar    
  27 N27            3.2789    -3.5471    -4.0663 N.ar    
  28 C28            2.1854    -3.3903    -3.3315 C.ar    
  29 C29            2.2782    -2.9902    -2.0004 C.ar    
  30 C30            0.8532    -3.6487    -3.9307 C.ar    
  31 C31           -0.0881    -4.4327    -3.2581 C.ar    
  32 C32            0.5178    -3.1087    -5.1709 C.ar    
  33 N33           -0.6649    -3.3371    -5.7037 N.ar    
  34 C34           -1.5717    -4.0770    -5.0950 C.ar    
  35 C35           -1.3171    -4.6437    -3.8597 C.ar    
  36 C36            1.5171    -2.2555    -5.9088 C.3     
  37 H37           -0.9829     1.7106     0.2570 H       
  38 H38           -0.9199    -0.7428     0.1472 H       
  39 H39            1.2037    -1.9342     0.0473 H       
  40 H40            1.0826     3.0102     0.2774 H       
  41 H41            5.7404    -0.6505     0.0093 H       
  42 H42            4.7509     5.0870     0.2937 H       
  43 H43            8.0838     3.5501     0.1526 H       
  44 H44            7.2355     4.5588    -1.9289 H       
  45 H45            6.3204     5.7658    -0.9920 H       
  46 H46            6.3708     5.6585     1.5503 H       
  47 H47            8.5252     6.5660     2.3372 H       
  48 H48            9.4023     5.3190     1.4181 H       
  49 H49            9.3542     5.4215    -1.0089 H       
  50 H50            8.4435     6.7400    -1.7843 H       
  51 H51            7.3730     4.6347     3.4624 H       
  52 H52            4.6199    -2.6698     0.3752 H       
  53 H53            2.8509    -2.7160     0.5669 H       
  54 H54            5.6346    -2.7456    -1.8647 H       
  55 H55            5.3479    -3.4659    -4.2002 H       
  56 H56            1.3872    -2.8630    -1.4035 H       
  57 H57            0.1377    -4.8633    -2.2938 H       
  58 H58           -2.5295    -4.2391    -5.5669 H       
  59 H59           -2.0674    -5.2476    -3.3711 H       
  60 H60            2.1917    -2.8956    -6.4773 H       
  61 H61            0.9910    -1.5864    -6.5897 H       
  62 H62            2.0914    -1.6674    -5.1929 H       
@<TRIPOS>BOND
   1    1    2 ar
   2    1    6 ar
   3    1   37 1
   4    2    3 ar
   5    2   38 1
   6    3    4 ar
   7    3   39 1
   8    4    5 ar
   9    4    7 ar
  10    5    6 ar
  11    5   10 ar
  12    6   40 1
  13    7    8 ar
  14    7   23 1
  15    8    9 ar
  16    8   41 1
  17    9   10 ar
  18    9   11 1
  19   10   14 1
  20   11   12 am
  21   11   22 2
  22   12   13 1
  23   12   15 1
  24   13   14 2
  25   13   42 1
  26   15   16 1
  27   15   17 1
  28   15   43 1
  29   16   20 1
  30   16   44 1
  31   16   45 1
  32   17   18 1
  33   17   21 1
  34   17   46 1
  35   18   19 1
  36   18   47 1
  37   18   48 1
  38   19   20 1
  39   20   49 1
  40   20   50 1
  41   21   51 1
  42   23   24 1
  43   23   52 1
  44   23   53 1
  45   24   25 ar
  46   24   29 ar
  47   25   26 ar
  48   25   54 1
  49   26   27 ar
  50   26   55 1
  51   27   28 ar
  52   28   29 ar
  53   28   30 1
  54   29   56 1
  55   30   31 ar
  56   30   32 ar
  57   31   35 ar
  58   31   57 1
  59   32   33 ar
  60   32   36 1
  61   33   34 ar
  62   34   35 ar
  63   34   58 1
  64   35   59 1
  65   36   60 1
  66   36   61 1
  67   36   62 1

#	End of record

