#	Name: ASD04880210
#	Creating user name:	WinNT
#	Creation time:	15. 06. 2019 20:53

#	Modifying user name:	WinNT
#	Modification time:	15. 06. 2019 20:53

#	Program:	/corina/corina34_cracker 3.40 0067  02.08.2006

@<TRIPOS>MOLECULE
ASD04880210
  43   45    0    0    0
SMALL
NO_CHARGES


@<TRIPOS>ATOM
   1 C1            -0.0106     1.5407     0.0944 C.3     
   2 C2             0.0062     0.0004     0.0299 C.3     
   3 N3             1.4412    -0.3268     0.0241 N.am    
   4 N4             2.1724     0.8581     0.0777 N.2     
   5 C5             1.4531     1.9191     0.1182 C.2     
   6 O6             1.9315     3.1850     0.1735 O.3     
   7 C7             1.9624    -1.5687    -0.0247 C.2     
   8 O8             1.2305    -2.5382     0.0354 O.2     
   9 C9             3.4237    -1.7525    -0.1513 C.ar    
  10 C10            4.2528    -0.6501    -0.3638 C.ar    
  11 C11            5.6161    -0.8271    -0.4813 C.ar    
  12 C12            6.1631    -2.0940    -0.3890 C.ar    
  13 C13            5.3466    -3.1938    -0.1780 C.ar    
  14 C14            3.9805    -3.0287    -0.0530 C.ar    
  15 F15            5.8877    -4.4285    -0.0893 F       
  16 C16            3.3518     3.3418     0.1879 C.3     
  17 C17            3.8451     5.4296     1.4750 C.ar    
  18 C18            3.6947     4.8079     0.2507 C.ar    
  19 C19            4.1613     6.7794     1.5321 C.ar    
  20 O20            4.3102     7.3932     2.7354 O.3     
  21 C21            4.3256     7.5011     0.3590 C.ar    
  22 C22            4.1737     6.8747    -0.8631 C.ar    
  23 C23            3.8591     5.5296    -0.9174 C.ar    
  24 C24            4.1268     6.5880     3.9016 C.3     
  25 N25            4.6624     8.9411     0.4164 N.pl3   
  26 O26            4.8066     9.5744    -0.6141 O.2     
  27 O27            4.7955     9.4930     1.4940 O.2     
  28 H28           -0.4984     1.9551    -0.7879 H       
  29 H29           -0.5083     1.8801     1.0028 H       
  30 H30           -0.4812    -0.4259     0.9068 H       
  31 H31           -0.4714    -0.3508    -0.8848 H       
  32 H32            3.8277     0.3401    -0.4366 H       
  33 H33            6.2578     0.0259    -0.6462 H       
  34 H34            7.2309    -2.2268    -0.4821 H       
  35 H35            3.3443    -3.8858     0.1114 H       
  36 H36            3.7645     2.8344     1.0599 H       
  37 H37            3.7744     2.9083    -0.7185 H       
  38 H38            3.7123     4.8665     2.3869 H       
  39 H39            4.3012     7.4363    -1.7768 H       
  40 H40            3.7411     5.0417    -1.8736 H       
  41 H41            4.2737     7.1992     4.7920 H       
  42 H42            3.1168     6.1781     3.9049 H       
  43 H43            4.8499     5.7724     3.8974 H       
@<TRIPOS>BOND
   1    1    2 1
   2    1    5 1
   3    1   28 1
   4    1   29 1
   5    2    3 1
   6    2   30 1
   7    2   31 1
   8    3    4 1
   9    3    7 am
  10    4    5 2
  11    5    6 1
  12    6   16 1
  13    7    8 2
  14    7    9 1
  15    9   10 ar
  16    9   14 ar
  17   10   11 ar
  18   10   32 1
  19   11   12 ar
  20   11   33 1
  21   12   13 ar
  22   12   34 1
  23   13   14 ar
  24   13   15 1
  25   14   35 1
  26   16   18 1
  27   16   36 1
  28   16   37 1
  29   17   18 ar
  30   17   19 ar
  31   17   38 1
  32   18   23 ar
  33   19   20 1
  34   19   21 ar
  35   20   24 1
  36   21   22 ar
  37   21   25 1
  38   22   23 ar
  39   22   39 1
  40   23   40 1
  41   24   41 1
  42   24   42 1
  43   24   43 1
  44   25   26 2
  45   25   27 2

#	End of record

