#	Name: ASD09610055
#	Creating user name:	WinNT
#	Creation time:	15. 06. 2019 21:22

#	Modifying user name:	WinNT
#	Modification time:	15. 06. 2019 21:22

#	Program:	/corina/corina34_cracker 3.40 0067  02.08.2006

@<TRIPOS>MOLECULE
ASD09610055
  51   53    0    0    0
SMALL
NO_CHARGES


@<TRIPOS>ATOM
   1 C1             0.2520     1.3753    -0.7778 C.2     
   2 N2             0.2572     0.0062    -0.7720 N.pl3   
   3 N3             1.0620     2.0326     0.0011 N.2     
   4 C4             1.1742    -0.7191     0.1108 C.3     
   5 C5            -0.6543    -0.7335    -1.6485 C.3     
   6 C6             0.0285    -0.9916    -2.9931 C.3     
   7 C7             1.1214     3.4021    -0.0693 C.ar    
   8 C8             2.3551     4.0523    -0.0189 C.ar    
   9 C9             2.4107     5.4282    -0.0904 C.ar    
  10 C10            1.2412     6.1667    -0.2118 C.ar    
  11 C11            0.0122     5.5236    -0.2617 C.ar    
  12 C12           -0.0511     4.1472    -0.1971 C.ar    
  13 C13           -1.2542     6.3299    -0.3931 C.3     
  14 C14            3.6250     3.2518     0.1139 C.3     
  15 O15            1.3000     7.5230    -0.2815 O.3     
  16 S16            1.2701     7.3075    -3.0377 S.3     
  17 N17            1.4326     8.7405    -3.9369 N.2     
  18 C18            1.5436     9.6964    -3.0606 C.2     
  19 N19            1.5085     9.3704    -1.7895 N.2     
  20 C20            1.3629     8.0945    -1.5077 C.2     
  21 C21            1.7076    11.1312    -3.4912 C.3     
  22 C22            0.3507    11.7716    -3.6321 C.ar    
  23 C23           -0.2302    12.4049    -2.5493 C.ar    
  24 C24           -1.4746    12.9924    -2.6779 C.ar    
  25 C25           -2.1389    12.9466    -3.8906 C.ar    
  26 C26           -1.5571    12.3126    -4.9740 C.ar    
  27 C27           -0.3101    11.7304    -4.8457 C.ar    
  28 Cl28          -3.7022    13.6838    -4.0528 Cl      
  29 H29           -0.4209     1.9100    -1.4318 H       
  30 H30            0.6892    -0.8985     1.0702 H       
  31 H31            1.4402    -1.6724    -0.3458 H       
  32 H32            2.0757    -0.1259     0.2647 H       
  33 H33           -0.9130    -1.6849    -1.1838 H       
  34 H34           -1.5602    -0.1485    -1.8074 H       
  35 H35            0.2873    -0.0401    -3.4578 H       
  36 H36            0.9344    -1.5766    -2.8342 H       
  37 H37           -0.6496    -1.5419    -3.6453 H       
  38 H38            3.3652     5.9322    -0.0515 H       
  39 H39           -1.0074     3.6473    -0.2409 H       
  40 H40           -1.4888     6.4686    -1.4485 H       
  41 H41           -2.0734     5.8018     0.0948 H       
  42 H42           -1.1164     7.3025     0.0793 H       
  43 H43            4.0026     3.0024    -0.8777 H       
  44 H44            4.3706     3.8394     0.6494 H       
  45 H45            3.4202     2.3345     0.6660 H       
  46 H46            2.2882    11.6710    -2.7432 H       
  47 H47            2.2270    11.1660    -4.4489 H       
  48 H48            0.2883    12.4403    -1.6026 H       
  49 H49           -1.9285    13.4869    -1.8318 H       
  50 H50           -2.0751    12.2766    -5.9209 H       
  51 H51            0.1462    11.2393    -5.6925 H       
@<TRIPOS>BOND
   1    1    2 1
   2    1    3 2
   3    1   29 1
   4    2    4 1
   5    2    5 1
   6    3    7 1
   7    4   30 1
   8    4   31 1
   9    4   32 1
  10    5    6 1
  11    5   33 1
  12    5   34 1
  13    6   35 1
  14    6   36 1
  15    6   37 1
  16    7    8 ar
  17    7   12 ar
  18    8    9 ar
  19    8   14 1
  20    9   10 ar
  21    9   38 1
  22   10   11 ar
  23   10   15 1
  24   11   12 ar
  25   11   13 1
  26   12   39 1
  27   13   40 1
  28   13   41 1
  29   13   42 1
  30   14   43 1
  31   14   44 1
  32   14   45 1
  33   15   20 1
  34   16   17 1
  35   16   20 1
  36   17   18 2
  37   18   19 1
  38   18   21 1
  39   19   20 2
  40   21   22 1
  41   21   46 1
  42   21   47 1
  43   22   23 ar
  44   22   27 ar
  45   23   24 ar
  46   23   48 1
  47   24   25 ar
  48   24   49 1
  49   25   26 ar
  50   25   28 1
  51   26   27 ar
  52   26   50 1
  53   27   51 1

#	End of record

