#	Name: ASD03731502
#	Creating user name:	WinNT
#	Creation time:	15. 06. 2019 20:45

#	Modifying user name:	WinNT
#	Modification time:	15. 06. 2019 20:45

#	Program:	/corina/corina34_cracker 3.40 0067  02.08.2006

@<TRIPOS>MOLECULE
ASD03731502
  57   62    0    0    0
SMALL
NO_CHARGES


@<TRIPOS>ATOM
   1 C1             0.4277     1.4331    -0.2709 C.2     
   2 C2             0.2182    -0.0241    -0.1343 C.ar    
   3 C3             0.7086    -0.7010     0.9837 C.ar    
   4 C4             0.5098    -2.0605     1.1051 C.ar    
   5 C5            -0.1741    -2.7534     0.1217 C.ar    
   6 C6            -0.6623    -2.0887    -0.9890 C.ar    
   7 C7            -0.4757    -0.7278    -1.1196 C.ar    
   8 O8             1.5543     1.8893    -0.2549 O.2     
   9 N9            -0.6301     2.2550    -0.4189 N.am    
  10 C10           -0.4225     3.6989    -0.5543 C.3     
  11 C11           -1.7756     4.3966    -0.7073 C.3     
  12 C12           -1.5588     5.9045    -0.8487 C.3     
  13 O13           -8.2728     4.1992     1.0763 O.3     
  14 C14           -9.6772     4.4885     1.2059 C.3     
  15 O15           -9.7072     5.8776     1.5836 O.3     
  16 C16           -8.5659     6.4216     1.0676 C.ar    
  17 C17           -7.6839     5.3891     0.7567 C.ar    
  18 C18           -8.2027     7.7357     0.8331 C.ar    
  19 C19           -6.9578     8.0367     0.2888 C.ar    
  20 C20           -6.0821     6.9973    -0.0098 C.ar    
  21 C21           -6.4436     5.6857     0.2170 C.ar    
  22 O22           -6.4165     9.2466    -0.0329 O.3     
  23 C23           -4.8289     7.6338    -0.5486 C.3     
  24 C24           -4.9879     9.1096    -0.1586 C.3     
  25 N25           -2.8544     6.5725    -0.9952 N.am    
  26 C26           -3.5865     7.0298     0.0401 C.2     
  27 C27           -4.6919     7.4586    -2.0320 C.ar    
  28 C28           -5.4835     7.7962    -3.1070 C.ar    
  29 C29           -5.0721     7.4932    -4.3927 C.ar    
  30 C30           -3.8646     6.8500    -4.5954 C.ar    
  31 C31           -3.0686     6.5090    -3.5219 C.ar    
  32 C32           -3.4745     6.8104    -2.2241 C.ar    
  33 O33           -3.2981     6.9663     1.2165 O.2     
  34 N34            1.4408     0.0384     2.0364 N.pl3   
  35 O35            1.9806    -0.5688     2.9438 O.2     
  36 O36            1.5035     1.2541     1.9951 O.2     
  37 H37            0.8890    -2.5855     1.9694 H       
  38 H38           -0.3271    -3.8178     0.2215 H       
  39 H39           -1.1949    -2.6353    -1.7531 H       
  40 H40           -0.8618    -0.2091    -1.9847 H       
  41 H41           -1.5289     1.8906    -0.4357 H       
  42 H42            0.0834     4.0781     0.3336 H       
  43 H43            0.1899     3.8970    -1.4340 H       
  44 H44           -2.2816     4.0174    -1.5952 H       
  45 H45           -2.3880     4.1985     0.1724 H       
  46 H46           -1.0528     6.2837     0.0391 H       
  47 H47           -0.9464     6.1026    -1.7284 H       
  48 H48          -10.1884     4.3391     0.2549 H       
  49 H49          -10.1253     3.8704     1.9839 H       
  50 H50           -8.8898     8.5332     1.0741 H       
  51 H51           -5.7575     4.8881    -0.0266 H       
  52 H52           -4.6041     9.7610    -0.9438 H       
  53 H53           -4.4943     9.3143     0.7914 H       
  54 H54           -6.4261     8.2982    -2.9463 H       
  55 H55           -5.6923     7.7586    -5.2361 H       
  56 H56           -3.5436     6.6134    -5.5991 H       
  57 H57           -2.1273     6.0064    -3.6881 H       
@<TRIPOS>BOND
   1    1    2 1
   2    1    8 2
   3    1    9 am
   4    2    3 ar
   5    2    7 ar
   6    3    4 ar
   7    3   34 1
   8    4    5 ar
   9    4   37 1
  10    5    6 ar
  11    5   38 1
  12    6    7 ar
  13    6   39 1
  14    7   40 1
  15    9   10 1
  16    9   41 1
  17   10   11 1
  18   10   42 1
  19   10   43 1
  20   11   12 1
  21   11   44 1
  22   11   45 1
  23   12   25 1
  24   12   46 1
  25   12   47 1
  26   13   14 1
  27   13   17 1
  28   14   15 1
  29   14   48 1
  30   14   49 1
  31   15   16 1
  32   16   17 ar
  33   16   18 ar
  34   17   21 ar
  35   18   19 ar
  36   18   50 1
  37   19   20 ar
  38   19   22 1
  39   20   21 ar
  40   20   23 1
  41   21   51 1
  42   22   24 1
  43   23   24 1
  44   23   26 1
  45   23   27 1
  46   24   52 1
  47   24   53 1
  48   25   26 am
  49   25   32 1
  50   26   33 2
  51   27   28 ar
  52   27   32 ar
  53   28   29 ar
  54   28   54 1
  55   29   30 ar
  56   29   55 1
  57   30   31 ar
  58   30   56 1
  59   31   32 ar
  60   31   57 1
  61   34   35 2
  62   34   36 2

#	End of record

