#	Name: ASD01028649
#	Creating user name:	WinNT
#	Creation time:	15. 06. 2019 18:57

#	Modifying user name:	WinNT
#	Modification time:	15. 06. 2019 18:57

#	Program:	/corina/corina34_cracker 3.40 0067  02.08.2006

@<TRIPOS>MOLECULE
ASD01028649
  31   34    0    0    0
SMALL
NO_CHARGES


@<TRIPOS>ATOM
   1 C1            -0.0144     1.2139     0.0087 C.2     
   2 O2            -1.0400     1.7245    -0.4052 O.2     
   3 N3             4.8997     3.7274    -0.9417 N.ar    
   4 C4             6.0052     3.0339    -1.0685 C.ar    
   5 C5             6.0142     1.6439    -0.9741 C.ar    
   6 C6             4.8492     0.9694    -0.7435 C.ar    
   7 C7             3.6633     1.7180    -0.6077 C.ar    
   8 C8             2.4321     1.0919    -0.3704 C.ar    
   9 C9             1.2892     1.8652    -0.2422 C.ar    
  10 C10            1.3617     3.2651    -0.3497 C.ar    
  11 C11            2.5462     3.8864    -0.5802 C.ar    
  12 C12            3.7256     3.1305    -0.7149 C.ar    
  13 C13           -0.7833    -1.8555     1.6942 C.2     
  14 C14           -1.7305    -2.8285     2.0587 C.2     
  15 C15           -3.0249    -2.6812     1.6576 C.2     
  16 C16           -3.4004    -1.5716     0.8910 C.2     
  17 N17           -2.5198    -0.6646     0.5508 N.2     
  18 N18           -1.1843    -0.7854     0.9461 N.pl3   
  19 N19            0.5226    -1.7432     1.9336 N.2     
  20 C20            0.9858    -0.6387     1.3751 C.2     
  21 C21           -0.0712    -0.0009     0.7356 C.2     
  22 Cl22          -5.0521    -1.3963     0.3861 Cl      
  23 H23            6.9338     3.5541    -1.2515 H       
  24 H24            6.9411     1.1005    -1.0834 H       
  25 H25            4.8373    -0.1079    -0.6676 H       
  26 H26            2.3745     0.0166    -0.2883 H       
  27 H27            0.4624     3.8542    -0.2478 H       
  28 H28            2.5836     4.9628    -0.6606 H       
  29 H29           -1.4358    -3.6831     2.6497 H       
  30 H30           -3.7618    -3.4218     1.9312 H       
  31 H31            2.0086    -0.2932     1.4070 H       
@<TRIPOS>BOND
   1    1    2 2
   2    1    9 1
   3    1   21 1
   4    3    4 ar
   5    3   12 ar
   6    4    5 ar
   7    4   23 1
   8    5    6 ar
   9    5   24 1
  10    6    7 ar
  11    6   25 1
  12    7    8 ar
  13    7   12 ar
  14    8    9 ar
  15    8   26 1
  16    9   10 ar
  17   10   11 ar
  18   10   27 1
  19   11   12 ar
  20   11   28 1
  21   13   14 1
  22   13   18 1
  23   13   19 2
  24   14   15 2
  25   14   29 1
  26   15   16 1
  27   15   30 1
  28   16   17 2
  29   16   22 1
  30   17   18 1
  31   18   21 1
  32   19   20 1
  33   20   21 2
  34   20   31 1

#	End of record

