#	Name: ASD02408056
#	Creating user name:	WinNT
#	Creation time:	15. 06. 2019 20:21

#	Modifying user name:	WinNT
#	Modification time:	15. 06. 2019 20:21

#	Program:	/corina/corina34_cracker 3.40 0067  02.08.2006

@<TRIPOS>MOLECULE
ASD02408056
  40   42    0    0    0
SMALL
NO_CHARGES


@<TRIPOS>ATOM
   1 C1            -0.0160     1.3297     0.0094 C.2     
   2 C2             0.0021    -0.0041     0.0020 C.2     
   3 C3             1.2433     2.1575     0.0018 C.3     
   4 C4             1.6498     2.4405    -1.4215 C.2     
   5 N5             2.7582     3.1716    -1.6490 N.am    
   6 N6             0.9191     1.9646    -2.3929 N.2     
   7 C7             1.2321     2.1838    -3.6764 C.2     
   8 C8             2.3727     2.9431    -3.9855 C.2     
   9 C9             3.1518     3.4438    -2.9109 C.2     
  10 N10            0.4467     1.6713    -4.6796 N.pl3   
  11 C11           -0.7409     0.8800    -4.3483 C.3     
  12 O12            4.1514     4.1084    -3.1224 O.2     
  13 S13           -1.6467    -0.6164     0.0145 S.3     
  14 C14           -2.2867     1.0218     0.0295 C.2     
  15 C15           -1.2791     1.8958     0.0186 C.2     
  16 C16           -1.7430     0.9568    -5.5019 C.3     
  17 C17           -2.9833     0.1304    -5.1559 C.3     
  18 C18           -2.5778    -1.3273    -4.9287 C.3     
  19 C19           -1.5757    -1.4041    -3.7751 C.3     
  20 C20           -0.3354    -0.5777    -4.1211 C.3     
  21 C21            2.7412     3.1997    -5.3453 C.1     
  22 N22            3.0335     3.4032    -6.4240 N.1     
  23 H23            0.8929    -0.6146    -0.0101 H       
  24 H24            1.0628     3.0981     0.5220 H       
  25 H25            2.0405     1.6108     0.5055 H       
  26 H26            3.2770     3.5051    -0.9003 H       
  27 H27            0.6782     1.8332    -5.6075 H       
  28 H28           -1.1995     1.2751    -3.4418 H       
  29 H29           -3.3352     1.2805     0.0409 H       
  30 H30           -1.4368     2.9642     0.0246 H       
  31 H31           -2.0319     1.9953    -5.6637 H       
  32 H32           -1.2845     0.5617    -6.4084 H       
  33 H33           -3.4419     0.5255    -4.2494 H       
  34 H34           -3.6972     0.1851    -5.9777 H       
  35 H35           -3.4614    -1.9160    -4.6822 H       
  36 H36           -2.1193    -1.7224    -5.8352 H       
  37 H37           -2.0343    -1.0090    -2.8686 H       
  38 H38           -1.2869    -2.4425    -3.6132 H       
  39 H39            0.1231    -0.9728    -5.0276 H       
  40 H40            0.3785    -0.6324    -3.2992 H       
@<TRIPOS>BOND
   1    1    2 2
   2    1    3 1
   3    1   15 1
   4    2   13 1
   5    2   23 1
   6    3    4 1
   7    3   24 1
   8    3   25 1
   9    4    5 1
  10    4    6 2
  11    5    9 am
  12    5   26 1
  13    6    7 1
  14    7    8 2
  15    7   10 1
  16    8    9 1
  17    8   21 1
  18    9   12 2
  19   10   11 1
  20   10   27 1
  21   11   16 1
  22   11   20 1
  23   11   28 1
  24   13   14 1
  25   14   15 2
  26   14   29 1
  27   15   30 1
  28   16   17 1
  29   16   31 1
  30   16   32 1
  31   17   18 1
  32   17   33 1
  33   17   34 1
  34   18   19 1
  35   18   35 1
  36   18   36 1
  37   19   20 1
  38   19   37 1
  39   19   38 1
  40   20   39 1
  41   20   40 1
  42   21   22 3

#	End of record

