#	Name: ASD00171062
#	Creating user name:	WinNT
#	Creation time:	15. 06. 2019 18:32

#	Modifying user name:	WinNT
#	Modification time:	15. 06. 2019 18:32

#	Program:	/corina/corina34_cracker 3.40 0067  02.08.2006

@<TRIPOS>MOLECULE
ASD00171062
  52   55    0    0    0
SMALL
NO_CHARGES


@<TRIPOS>ATOM
   1 C1            -0.0926     1.5271     0.0075 C.ar    
   2 C2            -0.1192     0.1366     0.0775 C.ar    
   3 C3            -1.3121    -0.5279     0.1029 C.ar    
   4 C4            -2.5148     0.1880     0.0586 C.ar    
   5 C5            -2.4908     1.5873    -0.0118 C.ar    
   6 C6            -1.2847     2.2499    -0.0317 C.ar    
   7 Cl7           -1.2472     3.9834    -0.1189 Cl      
   8 C8            -3.7979    -0.5258     0.0854 C.2     
   9 C9            -4.9572     0.1666     0.0426 C.2     
  10 C10           -6.2342    -0.5438     0.0693 C.2     
  11 N11           -7.3889     0.1480     0.1361 N.am    
  12 O12           -6.2548    -1.7604     0.0312 O.2     
  13 C13           -7.3776     1.6077     0.3062 C.3     
  14 C14           -8.1880     2.2400    -0.8321 C.3     
  15 N15           -9.4810     1.5482    -0.9285 N.am    
  16 C16           -9.4924     0.0884    -1.0986 C.3     
  17 C17           -8.6819    -0.5432     0.0340 C.3     
  18 S18            1.4512     2.3759    -0.0243 S.3     
  19 C19            1.6383     2.7948    -1.7255 C.ar    
  20 C20          -10.6358     2.2400    -0.8618 C.2     
  21 C21          -11.9528     1.5078    -0.8439 C.3     
  22 O22          -10.6150     3.4517    -0.8161 O.2     
  23 C23            0.6162     2.5204    -2.6227 C.ar    
  24 C24            0.7663     2.8516    -3.9603 C.ar    
  25 C25            1.9439     3.4594    -4.4002 C.ar    
  26 C26            2.9629     3.7312    -3.4991 C.ar    
  27 C27            2.8090     3.4056    -2.1660 C.ar    
  28 Cl28           4.0845     3.7466    -1.0389 Cl      
  29 N29           -0.0552     2.7098    -5.0768 N.am    
  30 C30            0.5923     3.2083    -6.1467 C.2     
  31 N31            1.8008     3.6682    -5.7720 N.am    
  32 O32            0.1519     3.2385    -7.2808 O.2     
  33 H33            0.8067    -0.4184     0.1114 H       
  34 H34           -1.3279    -1.6064     0.1569 H       
  35 H35           -3.4155     2.1441    -0.0466 H       
  36 H36           -3.8148    -1.6044     0.1394 H       
  37 H37           -4.9403     1.2451    -0.0113 H       
  38 H38           -7.8278     1.8679     1.2642 H       
  39 H39           -6.3510     1.9722     0.2706 H       
  40 H40           -8.3533     3.2964    -0.6205 H       
  41 H41           -7.6449     2.1330    -1.7711 H       
  42 H42          -10.5190    -0.2760    -1.0631 H       
  43 H43           -9.0421    -0.1717    -2.0566 H       
  44 H44           -8.5174    -1.5995    -0.1788 H       
  45 H45           -9.2228    -0.4368     0.9743 H       
  46 H46          -11.7780     0.4419    -0.9905 H       
  47 H47          -12.4439     1.6667     0.1161 H       
  48 H48          -12.5892     1.8851    -1.6444 H       
  49 H49           -0.2935     2.0499    -2.2801 H       
  50 H50            3.8740     4.2010    -3.8390 H       
  51 H51           -0.9426     2.3183    -5.0823 H       
  52 H52            2.4593     4.0759    -6.3561 H       
@<TRIPOS>BOND
   1    1    2 ar
   2    1   18 1
   3    1    6 ar
   4    2    3 ar
   5    2   33 1
   6    3    4 ar
   7    3   34 1
   8    4    5 ar
   9    4    8 1
  10    5    6 ar
  11    5   35 1
  12    6    7 1
  13    8    9 2
  14    8   36 1
  15    9   10 1
  16    9   37 1
  17   10   11 am
  18   10   12 2
  19   11   13 1
  20   11   17 1
  21   13   14 1
  22   13   38 1
  23   13   39 1
  24   14   15 1
  25   14   40 1
  26   14   41 1
  27   15   16 1
  28   15   20 am
  29   16   17 1
  30   16   42 1
  31   16   43 1
  32   17   44 1
  33   17   45 1
  34   18   19 1
  35   19   23 ar
  36   19   27 ar
  37   20   21 1
  38   20   22 2
  39   21   46 1
  40   21   47 1
  41   21   48 1
  42   23   24 ar
  43   23   49 1
  44   24   25 ar
  45   24   29 1
  46   25   26 ar
  47   25   31 1
  48   26   27 ar
  49   26   50 1
  50   27   28 1
  51   29   30 am
  52   29   51 1
  53   30   31 am
  54   30   32 2
  55   31   52 1

#	End of record

