#	Name: ASD06390015
#	Creating user name:	WinNT
#	Creation time:	15. 06. 2019 21:06

#	Modifying user name:	WinNT
#	Modification time:	15. 06. 2019 21:06

#	Program:	/corina/corina34_cracker 3.40 0067  02.08.2006

@<TRIPOS>MOLECULE
ASD06390015
  53   55    0    0    0
SMALL
NO_CHARGES


@<TRIPOS>ATOM
   1 Cl1            7.1199     9.5143    -7.8456 Cl      
   2 Cl2            7.3858     5.3407    -4.4281 Cl      
   3 O3             0.0021    -0.0041     0.0020 O.2     
   4 S4            -0.0172     1.4168     0.0098 S.o2    
   5 N5             1.5819     1.8470    -0.0031 N.am    
   6 C6             1.9600     3.2621     0.0246 C.3     
   7 C7             3.2454     3.4305     0.8380 C.3     
   8 C8             3.6186     4.9152     0.8939 C.3     
   9 N9             3.7004     5.4343    -0.4782 N.am    
  10 C10            4.8080     6.0718    -0.9064 C.2     
  11 C11            4.8766     6.5984    -2.3167 C.3     
  12 O12            6.1413     7.2289    -2.5287 O.3     
  13 C13            6.3672     7.7617    -3.7599 C.ar    
  14 C14            6.0219     9.0820    -4.0200 C.ar    
  15 C15            6.2545     9.6226    -5.2803 C.ar    
  16 O16            5.8330    10.9216    -5.2829 O.3     
  17 C17            5.7172    11.2911    -3.8961 C.3     
  18 C18            7.0252    11.9041    -3.3920 C.3     
  19 C19            4.5555    12.2661    -3.6946 C.3     
  20 O20            5.4544    10.0416    -3.2306 O.3     
  21 C21            6.8293     8.8414    -6.2719 C.ar    
  22 C22            7.1711     7.5269    -6.0092 C.ar    
  23 C23            6.9477     6.9884    -4.7550 C.ar    
  24 O24            5.7495     6.2216    -0.1566 O.2     
  25 C25            2.5520     5.2446    -1.3749 C.3     
  26 C26            2.1907     3.7563    -1.4053 C.3     
  27 C27           -0.6699     2.0532    -1.5585 C.3     
  28 C28           -2.1580     1.7147    -1.6664 C.3     
  29 O29           -0.5647     2.1360     1.1063 O.2     
  30 H30            2.2682     1.1620    -0.0291 H       
  31 H31            1.1604     3.8426     0.4847 H       
  32 H32            3.0873     3.0568     1.8496 H       
  33 H33            4.0516     2.8703     0.3645 H       
  34 H34            2.8558     5.4632     1.4470 H       
  35 H35            4.5840     5.0310     1.3865 H       
  36 H36            4.7599     5.7730    -3.0189 H       
  37 H37            4.0782     7.3239    -2.4728 H       
  38 H38            7.2520    12.8011    -3.9683 H       
  39 H39            6.9218    12.1655    -2.3388 H       
  40 H40            7.8337    11.1826    -3.5096 H       
  41 H41            3.6277    11.7990    -4.0251 H       
  42 H42            4.4764    12.5238    -2.6385 H       
  43 H43            4.7346    13.1700    -4.2768 H       
  44 H44            7.6185     6.9215    -6.7836 H       
  45 H45            1.7022     5.8195    -1.0068 H       
  46 H46            2.8137     5.5778    -2.3792 H       
  47 H47            3.0069     3.1929    -1.8577 H       
  48 H48            1.2820     3.6144    -1.9904 H       
  49 H49           -0.5397     3.1348    -1.5940 H       
  50 H50           -0.1319     1.5951    -2.3885 H       
  51 H51           -2.2882     0.6331    -1.6309 H       
  52 H52           -2.6960     2.1728    -0.8364 H       
  53 H53           -2.5502     2.0971    -2.6088 H       
@<TRIPOS>BOND
   1    1   21 1
   2    2   23 1
   3    3    4 2
   4    4    5 am
   5    4   27 1
   6    4   29 2
   7    5    6 1
   8    5   30 1
   9    6    7 1
  10    6   26 1
  11    6   31 1
  12    7    8 1
  13    7   32 1
  14    7   33 1
  15    8    9 1
  16    8   34 1
  17    8   35 1
  18    9   10 am
  19    9   25 1
  20   10   11 1
  21   10   24 2
  22   11   12 1
  23   11   36 1
  24   11   37 1
  25   12   13 1
  26   13   14 ar
  27   13   23 ar
  28   14   15 ar
  29   14   20 1
  30   15   16 1
  31   15   21 ar
  32   16   17 1
  33   17   18 1
  34   17   19 1
  35   17   20 1
  36   18   38 1
  37   18   39 1
  38   18   40 1
  39   19   41 1
  40   19   42 1
  41   19   43 1
  42   21   22 ar
  43   22   23 ar
  44   22   44 1
  45   25   26 1
  46   25   45 1
  47   25   46 1
  48   26   47 1
  49   26   48 1
  50   27   28 1
  51   27   49 1
  52   27   50 1
  53   28   51 1
  54   28   52 1
  55   28   53 1

#	End of record

