#	Name: ASD01920065
#	Creating user name:	WinNT
#	Creation time:	15. 06. 2019 20:11

#	Modifying user name:	WinNT
#	Modification time:	15. 06. 2019 20:11

#	Program:	/corina/corina34_cracker 3.40 0067  02.08.2006

@<TRIPOS>MOLECULE
ASD01920065
  36   38    0    0    0
SMALL
NO_CHARGES


@<TRIPOS>ATOM
   1 C1            -0.1081     1.4794    -0.5552 C.2     
   2 C2            -0.1806     0.2314    -1.1050 C.2     
   3 C3             1.0637     2.3605    -0.5696 C.2     
   4 O4             2.0928     1.9959    -1.1076 O.2     
   5 N5             1.0014     3.5743     0.0128 N.am    
   6 C6             2.1505     4.3695     0.0985 C.ar    
   7 C7             2.0489     5.7507    -0.0065 C.ar    
   8 C8             3.3913     3.7780     0.2943 C.ar    
   9 C9             4.5249     4.5637     0.3792 C.ar    
  10 C10            4.4227     5.9438     0.2688 C.ar    
  11 C11            3.1822     6.5349     0.0780 C.ar    
  12 O12            5.5382     6.7169     0.3528 O.3     
  13 Cl13           6.0767     3.8251     0.6246 Cl      
  14 C14            6.3176     6.8329    -0.7518 C.ar    
  15 C15            7.5185     7.5265    -0.6762 C.ar    
  16 C16            8.3049     7.6375    -1.8099 C.ar    
  17 C17            7.8591     7.0472    -2.9854 C.ar    
  18 C18            6.6532     6.3721    -2.9873 C.ar    
  19 N19            5.9286     6.2796    -1.8887 N.ar    
  20 Cl20           8.8060     7.1566    -4.4362 Cl      
  21 C21           -1.4781    -0.2436    -0.8581 C.2     
  22 C22           -2.1325     0.7228    -0.1770 C.2     
  23 O23           -1.3056     1.7617    -0.0016 O.3     
  24 C24           -3.5598     0.6468     0.3007 C.3     
  25 H25            0.6076    -0.2890    -1.6287 H       
  26 H26            0.1604     3.8970     0.3727 H       
  27 H27            1.0834     6.2114    -0.1547 H       
  28 H28            3.4705     2.7044     0.3805 H       
  29 H29            3.1034     7.6085    -0.0082 H       
  30 H30            7.8344     7.9736     0.2547 H       
  31 H31            9.2434     8.1711    -1.7811 H       
  32 H32            6.3015     5.9112    -3.8985 H       
  33 H33           -1.8783    -1.2013    -1.1566 H       
  34 H34           -3.5852     0.2191     1.3029 H       
  35 H35           -3.9896     1.6482     0.3219 H       
  36 H36           -4.1369     0.0180    -0.3774 H       
@<TRIPOS>BOND
   1    1    2 2
   2    1    3 1
   3    1   23 1
   4    2   21 1
   5    2   25 1
   6    3    4 2
   7    3    5 am
   8    5    6 1
   9    5   26 1
  10    6    7 ar
  11    6    8 ar
  12    7   11 ar
  13    7   27 1
  14    8    9 ar
  15    8   28 1
  16    9   10 ar
  17    9   13 1
  18   10   11 ar
  19   10   12 1
  20   11   29 1
  21   12   14 1
  22   14   15 ar
  23   14   19 ar
  24   15   16 ar
  25   15   30 1
  26   16   17 ar
  27   16   31 1
  28   17   18 ar
  29   17   20 1
  30   18   19 ar
  31   18   32 1
  32   21   22 2
  33   21   33 1
  34   22   23 1
  35   22   24 1
  36   24   34 1
  37   24   35 1
  38   24   36 1

#	End of record

