#	Name: ASD01209128
#	Creating user name:	WinNT
#	Creation time:	15. 06. 2019 19:11

#	Modifying user name:	WinNT
#	Modification time:	15. 06. 2019 19:11

#	Program:	/corina/corina34_cracker 3.40 0067  02.08.2006

@<TRIPOS>MOLECULE
ASD01209128
  68   71    0    0    0
SMALL
NO_CHARGES


@<TRIPOS>ATOM
   1 C1            -0.0846     1.4336     0.0263 C.ar    
   2 C2             0.0177     0.0509    -0.0143 C.ar    
   3 C3            -1.1255    -0.7350     0.0267 C.ar    
   4 C4            -2.3740    -0.1408     0.1079 C.ar    
   5 C5            -2.4813     1.2499     0.1489 C.ar    
   6 C6            -1.3290     2.0359     0.1133 C.ar    
   7 O7             1.0381     2.1984    -0.0137 O.3     
   8 O8            -1.0198    -2.0892    -0.0133 O.3     
   9 C9            -1.4895    -2.7335    -1.1136 C.ar    
  10 C10           -1.5190    -4.1203    -1.1472 C.ar    
  11 C11           -3.8117     1.8885     0.2356 C.2     
  12 N12           -4.9232     1.1273     0.2751 N.am    
  13 O13           -3.9031     3.1001     0.2712 O.2     
  14 C14           -6.1732     1.7273     0.3565 C.2     
  15 S15           -6.4482     3.4138     0.4133 S.3     
  16 C16           -8.1861     3.1383     0.4988 C.2     
  17 C17           -8.3978     1.8209     0.4771 C.2     
  18 N18           -7.3017     1.0902     0.3949 N.2     
  19 P19          -10.4245     1.0158    -1.1571 P.3     
  20 O20          -10.3866     2.3097    -1.8745 O.2     
  21 C21           -1.9974    -4.7729    -2.2668 C.ar    
  22 C22           -2.4461    -4.0453    -3.3536 C.ar    
  23 C23           -2.4178    -2.6632    -3.3227 C.ar    
  24 C24           -1.9457    -2.0057    -2.2033 C.ar    
  25 S25           -3.0546    -4.8807    -4.7806 S.o2    
  26 O26           -2.8349    -3.9639    -5.8438 O.2     
  27 O27           -2.4005    -6.1419    -4.7539 O.2     
  28 C28           -4.8304    -5.0779    -4.4669 C.3     
  29 C29           -9.7771     1.2165     0.5353 C.3     
  30 C30            0.8565     3.6136    -0.0929 C.3     
  31 C31            2.0904     4.2510    -0.7350 C.3     
  32 C32            0.6625     4.1825     1.3141 C.3     
  33 O33          -11.9448     0.4437    -1.1119 O.3     
  34 C34          -12.4712    -0.2309    -2.2697 C.3     
  35 C35          -11.5043    -1.3415    -2.6820 C.3     
  36 C36          -10.1534    -0.7574    -3.0970 C.3     
  37 O37           -9.5589    -0.0983    -1.9635 O.3     
  38 O38            3.2219     4.0622     0.1170 O.3     
  39 C39            4.4333     4.6232    -0.3928 C.3     
  40 H40            0.9897    -0.4156    -0.0783 H       
  41 H41           -3.2633    -0.7530     0.1390 H       
  42 H42           -1.4077     3.1125     0.1452 H       
  43 H43           -1.1680    -4.6891    -0.2989 H       
  44 H44           -4.8502     0.1605     0.2467 H       
  45 H45           -8.9473     3.9021     0.5583 H       
  46 H46           -2.0206    -5.8523    -2.2935 H       
  47 H47           -2.7685    -2.0972    -4.1731 H       
  48 H48           -1.9238    -0.9262    -2.1797 H       
  49 H49           -5.2887    -4.0967    -4.3435 H       
  50 H50           -5.2933    -5.5918    -5.3093 H       
  51 H51           -4.9761    -5.6637    -3.5593 H       
  52 H52           -9.7269     0.2430     1.0229 H       
  53 H53          -10.4378     1.8729     1.1015 H       
  54 H54           -0.0228     3.8338    -0.6983 H       
  55 H55            2.2804     3.7825    -1.7006 H       
  56 H56            1.9162     5.3176    -0.8767 H       
  57 H57            1.5418     3.9623     1.9195 H       
  58 H58            0.5239     5.2619     1.2537 H       
  59 H59           -0.2165     3.7284     1.7716 H       
  60 H60          -13.4424    -0.6635    -2.0296 H       
  61 H61          -12.5797     0.4806    -3.0883 H       
  62 H62          -11.3587    -2.0207    -1.8419 H       
  63 H63          -11.9290    -1.8942    -3.5200 H       
  64 H64           -9.4984    -1.5594    -3.4373 H       
  65 H65          -10.2993    -0.0375    -3.9023 H       
  66 H66            5.2443     4.4376     0.3115 H       
  67 H67            4.6720     4.1624    -1.3513 H       
  68 H68            4.3078     5.6975    -0.5273 H       
@<TRIPOS>BOND
   1    1    2 ar
   2    1    7 1
   3    1    6 ar
   4    2    3 ar
   5    2   40 1
   6    3    4 ar
   7    3    8 1
   8    4    5 ar
   9    4   41 1
  10    5    6 ar
  11    5   11 1
  12    6   42 1
  13    7   30 1
  14    8    9 1
  15    9   10 ar
  16    9   24 ar
  17   10   21 ar
  18   10   43 1
  19   11   12 am
  20   11   13 2
  21   12   14 1
  22   12   44 1
  23   14   15 1
  24   14   18 2
  25   15   16 1
  26   16   17 2
  27   16   45 1
  28   17   18 1
  29   17   29 1
  30   19   20 2
  31   19   33 1
  32   19   29 1
  33   19   37 1
  34   21   22 ar
  35   21   46 1
  36   22   23 ar
  37   22   25 1
  38   23   24 ar
  39   23   47 1
  40   24   48 1
  41   25   26 2
  42   25   27 2
  43   25   28 1
  44   28   49 1
  45   28   50 1
  46   28   51 1
  47   29   52 1
  48   29   53 1
  49   30   31 1
  50   30   32 1
  51   30   54 1
  52   31   38 1
  53   31   55 1
  54   31   56 1
  55   32   57 1
  56   32   58 1
  57   32   59 1
  58   33   34 1
  59   34   35 1
  60   34   60 1
  61   34   61 1
  62   35   36 1
  63   35   62 1
  64   35   63 1
  65   36   37 1
  66   36   64 1
  67   36   65 1
  68   38   39 1
  69   39   66 1
  70   39   67 1
  71   39   68 1

#	End of record

