#	Name: ASD01230244
#	Creating user name:	WinNT
#	Creation time:	15. 06. 2019 19:12

#	Modifying user name:	WinNT
#	Modification time:	15. 06. 2019 19:12

#	Program:	/corina/corina34_cracker 3.40 0067  02.08.2006

@<TRIPOS>MOLECULE
ASD01230244
  50   53    0    0    0
SMALL
NO_CHARGES


@<TRIPOS>ATOM
   1 S1            -0.1995     1.9426     1.6148 S.o2    
   2 N2            -0.1542     0.3575     1.1424 N.am    
   3 C3             0.8494    -0.1413     0.4622 C.2     
   4 N4             1.9572     0.5497     0.0613 N.pl3   
   5 C5             2.1513     1.9849     0.2833 C.3     
   6 C6             1.5612     2.4057     1.6323 C.3     
   7 C7             0.7460    -1.5748     0.1151 C.2     
   8 C8             1.7819    -2.1767    -0.5654 C.2     
   9 C9             2.9036    -1.4105    -0.9113 C.2     
  10 C10            2.9678    -0.1051    -0.5980 C.2     
  11 C11           -0.4549    -2.3534     0.4943 C.ar    
  12 C12           -0.3486    -3.4017     1.4090 C.ar    
  13 C13           -1.4693    -4.1243     1.7601 C.ar    
  14 C14           -2.7022    -3.8103     1.2043 C.ar    
  15 C15           -2.8118    -2.7678     0.2938 C.ar    
  16 C16           -1.6966    -2.0371    -0.0578 C.ar    
  17 O17           -3.8044    -4.5252     1.5520 O.3     
  18 C18           -5.0169    -4.2272     0.8570 C.3     
  19 C19           -5.8717    -5.4050     0.8741 C.3     
  20 C20           -7.1805    -5.1931     0.0860 C.3     
  21 C21           -8.1414    -4.4250     0.9526 C.3     
  22 C22           -8.0790    -2.9066     0.6995 C.3     
  23 C23           -6.6381    -2.3873     0.5333 C.3     
  24 C24           -5.6856    -3.0058     1.5205 C.3     
  25 O25           -0.8860     2.6093     0.5644 O.2     
  26 O26           -0.7250     1.9075     2.9347 O.2     
  27 H27            3.2179     2.2094     0.2717 H       
  28 H28            1.6588     2.5418    -0.5139 H       
  29 H29            1.6606     3.4835     1.7613 H       
  30 H30            2.0743     1.8850     2.4409 H       
  31 H31            1.7306    -3.2230    -0.8279 H       
  32 H32            3.7259    -1.8746    -1.4356 H       
  33 H33            3.8506     0.4514    -0.8761 H       
  34 H34            0.6102    -3.6471     1.8412 H       
  35 H35           -1.3878    -4.9359     2.4680 H       
  36 H36           -3.7725    -2.5264    -0.1365 H       
  37 H37           -1.7834    -1.2237    -0.7629 H       
  38 H38           -4.7786    -3.9789    -0.1772 H       
  39 H39           -5.3279    -6.2422     0.4367 H       
  40 H40           -6.1176    -5.6477     1.9079 H       
  41 H41           -6.9735    -4.6268    -0.8221 H       
  42 H42           -7.6129    -6.1597    -0.1725 H       
  43 H43           -9.1541    -4.7747     0.7520 H       
  44 H44           -7.9044    -4.6182     1.9988 H       
  45 H45           -8.6418    -2.6776    -0.2055 H       
  46 H46           -8.5438    -2.3908     1.5398 H       
  47 H47           -6.2958    -2.6139    -0.4764 H       
  48 H48           -6.6349    -1.3059     0.6703 H       
  49 H49           -6.2334    -3.3250     2.4071 H       
  50 H50           -4.9238    -2.2780     1.7996 H       
@<TRIPOS>BOND
   1    1    2 am
   2    1    6 1
   3    1   25 2
   4    1   26 2
   5    2    3 2
   6    3    4 1
   7    3    7 1
   8    4    5 1
   9    4   10 1
  10    5    6 1
  11    5   27 1
  12    5   28 1
  13    6   29 1
  14    6   30 1
  15    7    8 2
  16    7   11 1
  17    8    9 1
  18    8   31 1
  19    9   10 2
  20    9   32 1
  21   10   33 1
  22   11   12 ar
  23   11   16 ar
  24   12   13 ar
  25   12   34 1
  26   13   14 ar
  27   13   35 1
  28   14   15 ar
  29   14   17 1
  30   15   16 ar
  31   15   36 1
  32   16   37 1
  33   17   18 1
  34   18   19 1
  35   18   24 1
  36   18   38 1
  37   19   20 1
  38   19   39 1
  39   19   40 1
  40   20   21 1
  41   20   41 1
  42   20   42 1
  43   21   22 1
  44   21   43 1
  45   21   44 1
  46   22   23 1
  47   22   45 1
  48   22   46 1
  49   23   24 1
  50   23   47 1
  51   23   48 1
  52   24   49 1
  53   24   50 1

#	End of record

