#	Name: ASD01911654
#	Creating user name:	WinNT
#	Creation time:	15. 06. 2019 19:58

#	Modifying user name:	WinNT
#	Modification time:	15. 06. 2019 19:58

#	Program:	/corina/corina34_cracker 3.40 0067  02.08.2006

@<TRIPOS>MOLECULE
ASD01911654
  34   36    0    0    0
SMALL
NO_CHARGES


@<TRIPOS>ATOM
   1 N1            -0.0171     1.3436     0.0002 N.am    
   2 C2             0.0021    -0.0041     0.0020 C.2     
   3 C3            -1.2508    -0.7543     0.1205 C.2     
   4 C4            -1.3862    -2.1135     0.0310 C.2     
   5 S5            -2.8471    -0.0659     0.4110 S.3     
   6 C6            -3.5481    -1.6813     0.3771 C.2     
   7 N7            -2.6014    -2.5626     0.1691 N.2     
   8 C8            -4.9363    -1.9846     0.5542 C.1     
   9 C9            -6.0745    -2.2333     0.6993 C.1     
  10 C10           -7.4627    -2.5366     0.8764 C.ar    
  11 C11           -7.9039    -3.8625     0.8289 C.ar    
  12 C12           -9.2423    -4.1466     1.0008 C.ar    
  13 C13          -10.1481    -3.1233     1.2194 C.ar    
  14 C14           -9.7191    -1.8084     1.2677 C.ar    
  15 C15           -8.3831    -1.5088     1.1034 C.ar    
  16 O16            1.0602    -0.5978    -0.0948 O.2     
  17 C17           -1.2238     2.1834     0.0062 C.3     
  18 C18           -0.7585     3.6544    -0.0250 C.3     
  19 C19            0.6718     3.5539    -0.6179 C.3     
  20 C20            1.1686     2.2197    -0.0018 C.3     
  21 F21            0.6318     3.4821    -2.0145 F       
  22 F22            1.4662     4.6252    -0.1954 F       
  23 H23           -0.5446    -2.7679    -0.1422 H       
  24 H24           -7.1983    -4.6621     0.6577 H       
  25 H25           -9.5846    -5.1703     0.9644 H       
  26 H26          -11.1951    -3.3520     1.3526 H       
  27 H27          -10.4319    -1.0152     1.4383 H       
  28 H28           -8.0499    -0.4822     1.1413 H       
  29 H29           -1.8300     1.9676    -0.8736 H       
  30 H30           -1.8011     1.9963     0.9117 H       
  31 H31           -1.4032     4.2492    -0.6720 H       
  32 H32           -0.7302     4.0714     0.9817 H       
  33 H33            1.5287     2.3818     1.0142 H       
  34 H34            1.9553     1.7863    -0.6193 H       
@<TRIPOS>BOND
   1    1    2 am
   2    1   17 1
   3    1   20 1
   4    2    3 1
   5    2   16 2
   6    3    4 2
   7    3    5 1
   8    4    7 1
   9    4   23 1
  10    5    6 1
  11    6    7 2
  12    6    8 1
  13    8    9 3
  14    9   10 1
  15   10   11 ar
  16   10   15 ar
  17   11   12 ar
  18   11   24 1
  19   12   13 ar
  20   12   25 1
  21   13   14 ar
  22   13   26 1
  23   14   15 ar
  24   14   27 1
  25   15   28 1
  26   17   18 1
  27   17   29 1
  28   17   30 1
  29   18   19 1
  30   18   31 1
  31   18   32 1
  32   19   20 1
  33   19   21 1
  34   19   22 1
  35   20   33 1
  36   20   34 1

#	End of record

