#	Name: ASD01870145
#	Creating user name:	WinNT
#	Creation time:	15. 06. 2019 19:38

#	Modifying user name:	WinNT
#	Modification time:	15. 06. 2019 19:38

#	Program:	/corina/corina34_cracker 3.40 0067  02.08.2006

@<TRIPOS>MOLECULE
ASD01870145
  42   44    0    0    0
SMALL
NO_CHARGES


@<TRIPOS>ATOM
   1 C1            -2.0452     1.4872     0.7651 C.3     
   2 C2            -2.0366    -0.0198     0.7752 C.2     
   3 N3            -1.1558    -0.6938     0.0094 N.am    
   4 O4            -2.8222    -0.6261     1.4725 O.2     
   5 C5            -1.0812    -2.0896     0.0915 C.ar    
   6 C6            -2.2337    -2.8353     0.3016 C.ar    
   7 C7             0.1445    -2.7284    -0.0426 C.ar    
   8 C8             0.2184    -4.1057     0.0384 C.ar    
   9 C9            -0.9335    -4.8514     0.2541 C.ar    
  10 C10           -2.1603    -4.2126     0.3827 C.ar    
  11 Cl11          -3.6001    -5.1442     0.6523 Cl      
  12 N12           -0.8587    -6.2509     0.3361 N.am    
  13 C13           -0.6597    -6.8989     1.4900 C.2     
  14 C14           -0.9863    -7.0465    -0.7325 C.2     
  15 C15           -0.8567    -8.4900    -0.2999 C.3     
  16 C16           -0.6320    -8.3885     1.2291 C.3     
  17 O17           -1.1761    -6.6694    -1.8689 O.2     
  18 O18           -0.5227    -6.3742     2.5743 O.2     
  19 Cl19           1.7506    -4.9042    -0.1299 Cl      
  20 C20           -3.1318     1.9973     1.7137 C.3     
  21 C21           -0.6818     2.0081     1.2242 C.3     
  22 C22           -1.8588    -9.0440     1.8938 C.3     
  23 C23           -2.4112   -10.0062     0.8137 C.3     
  24 C24           -2.2108    -9.2017    -0.4913 C.3     
  25 H25           -2.2486     1.8426    -0.2450 H       
  26 H26           -0.5737    -0.2119    -0.5987 H       
  27 H27           -3.1874    -2.3386     0.4018 H       
  28 H28            1.0401    -2.1486    -0.2107 H       
  29 H29           -0.0358    -8.9979    -0.8061 H       
  30 H30            0.3100    -8.8417     1.5380 H       
  31 H31           -2.9284     1.6419     2.7239 H       
  32 H32           -3.1380     3.0873     1.7064 H       
  33 H33           -4.1031     1.6263     1.3867 H       
  34 H34           -0.6880     3.0980     1.2169 H       
  35 H35           -0.4784     1.6526     2.2343 H       
  36 H36            0.0924     1.6446     0.5483 H       
  37 H37           -1.5593    -9.6000     2.7822 H       
  38 H38           -2.6030    -8.2893     2.1484 H       
  39 H39           -1.8364   -10.9321     0.7907 H       
  40 H40           -3.4684   -10.2107     0.9827 H       
  41 H41           -3.0107    -8.4718    -0.6157 H       
  42 H42           -2.1703    -9.8738    -1.3484 H       
@<TRIPOS>BOND
   1    1    2 1
   2    1   20 1
   3    1   21 1
   4    1   25 1
   5    2    3 am
   6    2    4 2
   7    3    5 1
   8    3   26 1
   9    5    6 ar
  10    5    7 ar
  11    6   10 ar
  12    6   27 1
  13    7    8 ar
  14    7   28 1
  15    8    9 ar
  16    8   19 1
  17    9   10 ar
  18    9   12 1
  19   10   11 1
  20   12   13 am
  21   12   14 am
  22   13   18 2
  23   13   16 1
  24   14   15 1
  25   14   17 2
  26   15   16 1
  27   15   24 1
  28   15   29 1
  29   16   22 1
  30   16   30 1
  31   20   31 1
  32   20   32 1
  33   20   33 1
  34   21   34 1
  35   21   35 1
  36   21   36 1
  37   22   23 1
  38   22   37 1
  39   22   38 1
  40   23   24 1
  41   23   39 1
  42   23   40 1
  43   24   41 1
  44   24   42 1

#	End of record

