#	Name: ASD02448181
#	Creating user name:	WinNT
#	Creation time:	15. 06. 2019 20:22

#	Modifying user name:	WinNT
#	Modification time:	15. 06. 2019 20:22

#	Program:	/corina/corina34_cracker 3.40 0067  02.08.2006

@<TRIPOS>MOLECULE
ASD02448181
  82   88    0    0    0
SMALL
NO_CHARGES


@<TRIPOS>ATOM
   1 C1             3.5387    -7.4347    -1.5400 C.ar    
   2 C2             2.9872    -6.4050    -0.8043 C.ar    
   3 C3             2.3303    -5.3655    -1.4487 C.ar    
   4 C4             2.2273    -5.3613    -2.8331 C.ar    
   5 C5             2.7785    -6.3906    -3.5696 C.ar    
   6 C6             3.4362    -7.4306    -2.9253 C.ar    
   7 N7             3.9950    -8.4731    -3.6708 N.am    
   8 C8             5.1089    -9.3542    -3.2966 C.3     
   9 C9             5.4033   -10.3461    -4.3753 C.2     
  10 N10            4.6165   -10.2502    -5.4564 N.am    
  11 S11            3.5444    -9.0058    -5.1863 S.o2    
  12 O12            6.2854   -11.1729    -4.2800 O.2     
  13 O13            2.2518    -9.5842    -5.0682 O.2     
  14 O14            3.8680    -7.9676    -6.1010 O.2     
  15 N15            1.7698    -4.3188    -0.7003 N.pl3   
  16 C16            0.8552    -4.4432     0.3107 C.2     
  17 C17            2.0386    -2.9944    -0.8406 C.2     
  18 N18            1.3311    -2.3262     0.0272 N.2     
  19 C19            0.5895    -3.1865     0.7539 C.2     
  20 C20           -0.3497    -2.8251     1.8440 C.ar    
  21 C21           -0.5279    -1.4882     2.1998 C.ar    
  22 C22           -1.0611    -3.8194     2.5121 C.ar    
  23 C23           -1.9337    -3.4782     3.5256 C.ar    
  24 C24           -2.1032    -2.1507     3.8792 C.ar    
  25 C25           -1.4034    -1.1577     3.2152 C.ar    
  26 C26            4.3370    -2.1821    -1.1780 C.ar    
  27 C27            5.2545    -3.2163    -1.1311 C.ar    
  28 C28            4.6458    -0.9510    -0.6279 C.ar    
  29 C29            5.8723    -0.7480    -0.0288 C.ar    
  30 C30            6.8008    -1.7865     0.0214 C.ar    
  31 C31            6.4841    -3.0249    -0.5345 C.ar    
  32 C32            8.1206    -1.5745     0.6634 C.ar    
  33 Cl33          -3.2028    -1.7289     5.1546 Cl      
  34 Cl34           0.3497    -0.2424     1.3681 Cl      
  35 C35            2.9983    -2.3956    -1.8363 C.3     
  36 C36            9.0474    -2.6157     0.7119 C.ar    
  37 C37           10.2731    -2.4198     1.3078 C.ar    
  38 C38           10.5883    -1.1780     1.8637 C.ar    
  39 C39            9.6598    -0.1361     1.8146 C.ar    
  40 C40            8.4367    -0.3322     1.2132 C.ar    
  41 C41           11.9028    -0.9670     2.5036 C.2     
  42 C42           12.2017     0.2126     3.0314 C.2     
  43 C43           13.5428     0.4280     3.6842 C.3     
  44 C44           14.2875     1.5520     2.9611 C.3     
  45 C45           15.6490     1.7706     3.6239 C.3     
  46 C46           15.4463     2.1546     5.0909 C.3     
  47 C47           14.7016     1.0306     5.8141 C.3     
  48 C48           13.3400     0.8120     5.1513 C.3     
  49 H49            4.0536    -8.2410    -1.0389 H       
  50 H50            3.0665    -6.4083     0.2728 H       
  51 H51            1.7156    -4.5528    -3.3340 H       
  52 H52            2.6980    -6.3874    -4.6466 H       
  53 H53            5.9973    -8.7492    -3.1158 H       
  54 H54            4.8503    -9.8876    -2.3820 H       
  55 H55            4.6617   -10.8063    -6.2498 H       
  56 H56            0.4276    -5.3621     0.6837 H       
  57 H57           -0.9303    -4.8556     2.2371 H       
  58 H58           -2.4858    -4.2485     4.0436 H       
  59 H59           -1.5390    -0.1234     3.4949 H       
  60 H60            5.0079    -4.1755    -1.5618 H       
  61 H61            3.9258    -0.1470    -0.6678 H       
  62 H62            6.1125     0.2137     0.4000 H       
  63 H63            7.1995    -3.8332    -0.4981 H       
  64 H64            3.1135    -3.0729    -2.6826 H       
  65 H65            2.6090    -1.4396    -2.1864 H       
  66 H66            8.8033    -3.5761     0.2823 H       
  67 H67           10.9905    -3.2263     1.3456 H       
  68 H68            9.9026     0.8246     2.2442 H       
  69 H69            7.7185     0.4735     1.1752 H       
  70 H70           12.6205    -1.7731     2.5417 H       
  71 H71           11.4840     1.0188     2.9933 H       
  72 H72           14.1267    -0.4906     3.6265 H       
  73 H73           14.4319     1.2784     1.9159 H       
  74 H74           13.7035     2.4706     3.0188 H       
  75 H75           16.2329     0.8520     3.5661 H       
  76 H76           16.1795     2.5713     3.1086 H       
  77 H77           16.4162     2.3104     5.5631 H       
  78 H78           14.8623     3.0732     5.1487 H       
  79 H79           15.2855     0.1120     5.7563 H       
  80 H80           14.5571     1.3042     6.8593 H       
  81 H81           12.7561     1.7306     5.2091 H       
  82 H82           12.8095     0.0112     5.6665 H       
@<TRIPOS>BOND
   1    1    2 ar
   2    1    6 ar
   3    1   49 1
   4    2    3 ar
   5    2   50 1
   6    3    4 ar
   7    3   15 1
   8    4    5 ar
   9    4   51 1
  10    5    6 ar
  11    5   52 1
  12    6    7 1
  13    7    8 1
  14    7   11 am
  15    8    9 1
  16    8   53 1
  17    8   54 1
  18    9   10 am
  19    9   12 2
  20   10   11 am
  21   10   55 1
  22   11   13 2
  23   11   14 2
  24   15   16 1
  25   15   17 1
  26   16   19 2
  27   16   56 1
  28   17   18 2
  29   17   35 1
  30   18   19 1
  31   19   20 1
  32   20   21 ar
  33   20   22 ar
  34   21   34 1
  35   21   25 ar
  36   22   23 ar
  37   22   57 1
  38   23   24 ar
  39   23   58 1
  40   24   25 ar
  41   24   33 1
  42   25   59 1
  43   26   27 ar
  44   26   28 ar
  45   26   35 1
  46   27   31 ar
  47   27   60 1
  48   28   29 ar
  49   28   61 1
  50   29   30 ar
  51   29   62 1
  52   30   31 ar
  53   30   32 1
  54   31   63 1
  55   32   36 ar
  56   32   40 ar
  57   35   64 1
  58   35   65 1
  59   36   37 ar
  60   36   66 1
  61   37   38 ar
  62   37   67 1
  63   38   39 ar
  64   38   41 1
  65   39   40 ar
  66   39   68 1
  67   40   69 1
  68   41   42 2
  69   41   70 1
  70   42   43 1
  71   42   71 1
  72   43   44 1
  73   43   48 1
  74   43   72 1
  75   44   45 1
  76   44   73 1
  77   44   74 1
  78   45   46 1
  79   45   75 1
  80   45   76 1
  81   46   47 1
  82   46   77 1
  83   46   78 1
  84   47   48 1
  85   47   79 1
  86   47   80 1
  87   48   81 1
  88   48   82 1

#	End of record

