#	Name: ASD01148058
#	Creating user name:	WinNT
#	Creation time:	15. 06. 2019 19:01

#	Modifying user name:	WinNT
#	Modification time:	15. 06. 2019 19:01

#	Program:	/corina/corina34_cracker 3.40 0067  02.08.2006

@<TRIPOS>MOLECULE
ASD01148058
  46   46    0    0    0
SMALL
NO_CHARGES


@<TRIPOS>ATOM
   1 N1            -0.0162     1.3436     0.0094 N.am    
   2 C2             1.2424     2.0932     0.0014 C.3     
   3 C3             1.7586     2.2385     1.4344 C.3     
   4 O4             0.8470     3.0383     2.1903 O.3     
   5 C5             1.0094     3.4598    -0.5895 C.2     
   6 O6            -0.0989     3.7764    -0.9668 O.2     
   7 N7             2.0326     4.3302    -0.6987 N.am    
   8 C8             1.2378     3.2367     3.5504 C.3     
   9 F9             1.3320     1.9981     4.1940 F       
  10 F10            2.4804     3.8783     3.5897 F       
  11 C11            0.0021    -0.0041     0.0020 C.2     
  12 O12           -1.1546    -0.6931     0.0094 O.3     
  13 O13            1.0625    -0.5972    -0.0113 O.2     
  14 C14           -1.0590    -2.1419     0.0007 C.3     
  15 C15           -0.2938    -2.6099     1.2402 C.3     
  16 C16           -2.4647    -2.7459     0.0108 C.3     
  17 C17           -0.3177    -2.5965    -1.2582 C.3     
  18 C18            1.8060     5.6587    -1.2731 C.3     
  19 C19            3.1007     6.4299    -1.2814 C.ar    
  20 C20            3.9429     6.3546    -2.3751 C.ar    
  21 C21            5.1304     7.0616    -2.3832 C.ar    
  22 C22            5.4763     7.8449    -1.2964 C.ar    
  23 C23            4.6331     7.9199    -0.2022 C.ar    
  24 C24            3.4431     7.2168    -0.1976 C.ar    
  25 Cl25           6.9680     8.7328    -1.3057 Cl      
  26 H26           -0.8627     1.8170     0.0241 H       
  27 H27            1.9797     1.5591    -0.5979 H       
  28 H28            1.8428     1.2528     1.8919 H       
  29 H29            2.7376     2.7177     1.4211 H       
  30 H30            2.9190     4.0770    -0.3969 H       
  31 H31            0.4945     3.8532     4.0558 H       
  32 H32           -0.8219    -2.2860     2.1370 H       
  33 H33           -0.2220    -3.6975     1.2336 H       
  34 H34            0.7076    -2.1796     1.2329 H       
  35 H35           -3.0098    -2.4124    -0.8722 H       
  36 H36           -2.3929    -3.8335     0.0043 H       
  37 H37           -2.9928    -2.4220     0.9077 H       
  38 H38            0.6838    -2.1662    -1.2654 H       
  39 H39           -0.2459    -3.6841    -1.2647 H       
  40 H40           -0.8628    -2.2631    -2.1412 H       
  41 H41            1.4383     5.5552    -2.2940 H       
  42 H42            1.0688     6.1928    -0.6738 H       
  43 H43            3.6730     5.7428    -3.2232 H       
  44 H44            5.7885     7.0024    -3.2375 H       
  45 H45            4.9025     8.5312     0.6464 H       
  46 H46            2.7847     7.2753     0.6566 H       
@<TRIPOS>BOND
   1    1   11 am
   2    1    2 1
   3    1   26 1
   4    2    3 1
   5    2    5 1
   6    2   27 1
   7    3    4 1
   8    3   28 1
   9    3   29 1
  10    4    8 1
  11    5    6 2
  12    5    7 am
  13    7   18 1
  14    7   30 1
  15    8    9 1
  16    8   10 1
  17    8   31 1
  18   11   12 1
  19   11   13 2
  20   12   14 1
  21   14   15 1
  22   14   16 1
  23   14   17 1
  24   15   32 1
  25   15   33 1
  26   15   34 1
  27   16   35 1
  28   16   36 1
  29   16   37 1
  30   17   38 1
  31   17   39 1
  32   17   40 1
  33   18   19 1
  34   18   41 1
  35   18   42 1
  36   19   20 ar
  37   19   24 ar
  38   20   21 ar
  39   20   43 1
  40   21   22 ar
  41   21   44 1
  42   22   23 ar
  43   22   25 1
  44   23   24 ar
  45   23   45 1
  46   24   46 1

#	End of record

