#	Name: ASD03930006
#	Creating user name:	WinNT
#	Creation time:	15. 06. 2019 20:47

#	Modifying user name:	WinNT
#	Modification time:	15. 06. 2019 20:47

#	Program:	/corina/corina34_cracker 3.40 0067  02.08.2006

@<TRIPOS>MOLECULE
ASD03930006
  28   30    0    0    0
SMALL
NO_CHARGES


@<TRIPOS>ATOM
   1 S1            -0.0226     1.8176     0.0120 S.o2    
   2 C2             0.0021    -0.0041     0.0020 C.3     
   3 N3             0.9495    -0.4134    -1.0455 N.pl3   
   4 C4             2.2653     0.0450    -1.0229 C.ar    
   5 C5             2.6295     1.3097    -0.5195 C.ar    
   6 C6             1.6965     2.2257    -0.0022 C.ar    
   7 C7             3.2443    -0.7941    -1.5238 C.ar    
   8 C8             4.5804    -0.4129    -1.5355 C.ar    
   9 C9             4.9616     0.7995    -1.0502 C.ar    
  10 C10            4.0001     1.6812    -0.5290 C.ar    
  11 C11            4.3895     2.9340    -0.0125 C.ar    
  12 C12            3.4482     3.7863     0.4882 C.ar    
  13 C13            2.1026     3.4270     0.4893 C.ar    
  14 O14           -0.5207     2.3225    -1.2193 O.2     
  15 O15           -0.4971     2.3091     1.2580 O.2     
  16 C16            0.4686    -0.5277     1.3619 C.3     
  17 O17            5.6998     3.2921    -0.0129 O.3     
  18 H18           -0.9924    -0.3885    -0.2247 H       
  19 H19            0.6571    -1.0058    -1.7557 H       
  20 H20            2.9653    -1.7622    -1.9128 H       
  21 H21            5.3244    -1.0863    -1.9347 H       
  22 H22            6.0034     1.0838    -1.0649 H       
  23 H23            3.7485     4.7443     0.8862 H       
  24 H24            1.3696     4.1134     0.8867 H       
  25 H25           -0.2144    -0.1822     2.1379 H       
  26 H26            0.4803    -1.6175     1.3470 H       
  27 H27            1.4721    -0.1562     1.5694 H       
  28 H28            5.9805     3.7565    -0.8133 H       
@<TRIPOS>BOND
   1    1    2 1
   2    1    6 1
   3    1   14 2
   4    1   15 2
   5    2    3 1
   6    2   16 1
   7    2   18 1
   8    3    4 1
   9    3   19 1
  10    4    5 ar
  11    4    7 ar
  12    5    6 ar
  13    5   10 ar
  14    6   13 ar
  15    7    8 ar
  16    7   20 1
  17    8    9 ar
  18    8   21 1
  19    9   10 ar
  20    9   22 1
  21   10   11 ar
  22   11   12 ar
  23   11   17 1
  24   12   13 ar
  25   12   23 1
  26   13   24 1
  27   16   25 1
  28   16   26 1
  29   16   27 1
  30   17   28 1

#	End of record

