#	Name: ASD01208549
#	Creating user name:	WinNT
#	Creation time:	15. 06. 2019 19:10

#	Modifying user name:	WinNT
#	Modification time:	15. 06. 2019 19:10

#	Program:	/corina/corina34_cracker 3.40 0067  02.08.2006

@<TRIPOS>MOLECULE
ASD01208549
  61   64    0    0    0
SMALL
NO_CHARGES


@<TRIPOS>ATOM
   1 C1             1.4111    -0.7966    -3.9381 C.ar    
   2 C2             2.5904    -0.0763    -3.9832 C.ar    
   3 C3             3.3687     0.0191    -2.8412 C.ar    
   4 C4             2.9284    -0.6192    -1.6856 C.ar    
   5 C5             1.7336    -1.3234    -1.7186 C.ar    
   6 N6             1.0222    -1.3898    -2.8266 N.ar    
   7 S7             0.4107    -0.9175    -5.3835 S.o2    
   8 O8            -0.9018    -1.1345    -4.8842 O.2     
   9 O9             0.7276     0.2509    -6.1277 O.2     
  10 C10            1.0213    -2.3989    -6.2340 C.3     
  11 O11            3.6585    -0.5539    -0.5413 O.3     
  12 C12            4.8069     0.1723    -0.5579 C.ar    
  13 C13            4.7519     1.5576    -0.4924 C.ar    
  14 C14            5.9213     2.3037    -0.5085 C.ar    
  15 C15            7.1495     1.6683    -0.5901 C.ar    
  16 C16            7.2095     0.2760    -0.6561 C.ar    
  17 C17            6.0310    -0.4711    -0.6343 C.ar    
  18 N18            8.7134    -1.7567    -0.8132 N.pl3   
  19 C19            8.5180    -0.4062    -0.7433 C.2     
  20 C20            9.7485     0.2103    -0.7684 C.2     
  21 C21           10.7195    -0.7886    -0.8558 C.2     
  22 C22           10.0646    -2.0008    -0.8827 C.2     
  23 O23           10.0004    -4.4786    -0.9923 O.3     
  24 C24           10.6997    -3.3235    -0.9699 C.2     
  25 N25           11.9885    -3.4912    -1.0335 N.2     
  26 C26           12.2658    -4.9378    -1.1272 C.3     
  27 C27           10.8748    -5.5107    -1.4925 C.3     
  28 C28           13.2835    -5.2284    -2.2321 C.3     
  29 O29            5.8619     3.6599    -0.4446 O.3     
  30 C30            7.1048     4.3610    -0.3691 C.3     
  31 C31            6.8813     5.7266     0.2834 C.3     
  32 C32            7.6672     4.5552    -1.7787 C.3     
  33 O33            6.0471     6.5257    -0.5578 O.3     
  34 C34            5.7749     7.8286    -0.0377 C.3     
  35 H35            2.9013     0.4060    -4.8981 H       
  36 H36            4.2947     0.5748    -2.8476 H       
  37 H37            1.3827    -1.8227    -0.8276 H       
  38 H38            0.9032    -3.2657    -5.5838 H       
  39 H39            0.4519    -2.5521    -7.1508 H       
  40 H40            2.0755    -2.2689    -6.4785 H       
  41 H41            3.7960     2.0562    -0.4290 H       
  42 H42            8.0594     2.2500    -0.6030 H       
  43 H43            6.0733    -1.5493    -0.6811 H       
  44 H44            8.0157    -2.4306    -0.8101 H       
  45 H45            9.9298     1.2742    -0.7281 H       
  46 H46           11.7883    -0.6389    -0.8952 H       
  47 H47           12.6095    -5.3309    -0.1704 H       
  48 H48           10.6952    -6.4569    -0.9821 H       
  49 H49           10.7694    -5.6238    -2.5714 H       
  50 H50           14.2236    -4.7274    -2.0011 H       
  51 H51           13.4512    -6.3034    -2.2980 H       
  52 H52           12.9006    -4.8613    -3.1844 H       
  53 H53            7.8115     3.7844     0.2278 H       
  54 H54            6.3987     5.5921     1.2515 H       
  55 H55            7.8409     6.2246     0.4219 H       
  56 H56            6.9605     5.1317    -2.3756 H       
  57 H57            8.6153     5.0899    -1.7211 H       
  58 H58            7.8265     3.5822    -2.2436 H       
  59 H59            5.2693     7.7377     0.9237 H       
  60 H60            6.7116     8.3701     0.0942 H       
  61 H61            5.1361     8.3717    -0.7342 H       
@<TRIPOS>BOND
   1    1    2 ar
   2    1    6 ar
   3    1    7 1
   4    2    3 ar
   5    2   35 1
   6    3    4 ar
   7    3   36 1
   8    4    5 ar
   9    4   11 1
  10    5    6 ar
  11    5   37 1
  12    7    8 2
  13    7    9 2
  14    7   10 1
  15   10   38 1
  16   10   39 1
  17   10   40 1
  18   11   12 1
  19   12   13 ar
  20   12   17 ar
  21   13   14 ar
  22   13   41 1
  23   14   15 ar
  24   14   29 1
  25   15   16 ar
  26   15   42 1
  27   16   17 ar
  28   16   19 1
  29   17   43 1
  30   18   19 1
  31   18   22 1
  32   18   44 1
  33   19   20 2
  34   20   21 1
  35   20   45 1
  36   21   22 2
  37   21   46 1
  38   22   24 1
  39   23   24 1
  40   23   27 1
  41   24   25 2
  42   25   26 1
  43   26   27 1
  44   26   28 1
  45   26   47 1
  46   27   48 1
  47   27   49 1
  48   28   50 1
  49   28   51 1
  50   28   52 1
  51   29   30 1
  52   30   31 1
  53   30   32 1
  54   30   53 1
  55   31   33 1
  56   31   54 1
  57   31   55 1
  58   32   56 1
  59   32   57 1
  60   32   58 1
  61   33   34 1
  62   34   59 1
  63   34   60 1
  64   34   61 1

#	End of record

