#	Name: ASD01882375
#	Creating user name:	WinNT
#	Creation time:	15. 06. 2019 19:44

#	Modifying user name:	WinNT
#	Modification time:	15. 06. 2019 19:44

#	Program:	/corina/corina34_cracker 3.40 0067  02.08.2006

@<TRIPOS>MOLECULE
ASD01882375
  50   55    0    0    0
SMALL
NO_CHARGES


@<TRIPOS>ATOM
   1 C1            -0.0629     1.2886     0.3336 C.ar    
   2 C2            -0.0783    -0.0981     0.2273 C.ar    
   3 C3             1.1331    -0.7826     0.3165 C.ar    
   4 C4             2.2939    -0.0545     0.5134 C.ar    
   5 C5             2.2222     1.3219     0.6153 C.ar    
   6 N6             1.0623     1.9433     0.5238 N.ar    
   7 O7            -1.3428    -0.5701     0.0557 O.3     
   8 C8            -1.4947     1.7491     0.1790 C.3     
   9 C9            -2.1900     0.5016    -0.3982 C.3     
  10 N10           -3.6571     3.5466     0.3248 N.pl3   
  11 C11           -3.5659     2.4986     1.3507 C.3     
  12 C12           -2.0927     2.1144     1.5308 C.3     
  13 C13           -1.5868     2.9115    -0.7998 C.3     
  14 C14           -3.0566     3.3018    -0.9937 C.3     
  15 C15           -6.0644     6.3197     0.2016 C.2     
  16 C16           -5.4315     5.0993    -0.0924 C.2     
  17 C17           -4.3015     4.7509     0.5975 C.2     
  18 C18           -3.7939     5.6200     1.5872 C.2     
  19 C19           -4.4164     6.7853     1.8524 C.2     
  20 N20           -5.5436     7.1419     1.1710 N.pl3   
  21 N21           -7.3085     8.0471     0.3305 N.2     
  22 N22           -7.1389     6.9268    -0.2791 N.2     
  23 C23           -6.3678     8.2276     1.2199 C.2     
  24 C24           -6.2194     9.4188     2.1309 C.3     
  25 C25           -5.3591    10.4817     1.4446 C.3     
  26 C26           -5.1865    11.8221     2.1618 C.3     
  27 C27           -4.0198    10.8346     2.0949 C.3     
  28 Cl28          -6.0753     4.0469    -1.3138 Cl      
  29 H29            1.1651    -1.8590     0.2340 H       
  30 H30            3.2468    -0.5575     0.5871 H       
  31 H31            3.1247     1.8942     0.7715 H       
  32 H32           -2.2134     0.5411    -1.4872 H       
  33 H33           -3.1962     0.3973     0.0077 H       
  34 H34           -3.9638     2.8741     2.2934 H       
  35 H35           -4.1353     1.6252     1.0328 H       
  36 H36           -2.0197     1.2597     2.2034 H       
  37 H37           -1.5465     2.9574     1.9540 H       
  38 H38           -1.0337     3.7636    -0.4049 H       
  39 H39           -1.1605     2.6142    -1.7579 H       
  40 H40           -3.5875     2.4910    -1.4924 H       
  41 H41           -3.1178     4.2075    -1.5971 H       
  42 H42           -2.9029     5.3497     2.1345 H       
  43 H43           -4.0197     7.4430     2.6117 H       
  44 H44           -7.2033     9.8336     2.3499 H       
  45 H45           -5.7410     9.1084     3.0598 H       
  46 H46           -5.4096    10.4963     0.3558 H       
  47 H47           -5.1232    12.7185     1.5449 H       
  48 H48           -5.6859    11.9467     3.1226 H       
  49 H49           -3.7517    10.3095     3.0117 H       
  50 H50           -3.1889    11.0813     1.4340 H       
@<TRIPOS>BOND
   1    1    2 ar
   2    1    6 ar
   3    1    8 1
   4    2    3 ar
   5    2    7 1
   6    3    4 ar
   7    3   29 1
   8    4    5 ar
   9    4   30 1
  10    5    6 ar
  11    5   31 1
  12    7    9 1
  13    8    9 1
  14    8   12 1
  15    8   13 1
  16    9   32 1
  17    9   33 1
  18   10   11 1
  19   10   14 1
  20   10   17 1
  21   11   12 1
  22   11   34 1
  23   11   35 1
  24   12   36 1
  25   12   37 1
  26   13   14 1
  27   13   38 1
  28   13   39 1
  29   14   40 1
  30   14   41 1
  31   15   16 1
  32   15   20 1
  33   15   22 2
  34   16   17 2
  35   16   28 1
  36   17   18 1
  37   18   19 2
  38   18   42 1
  39   19   20 1
  40   19   43 1
  41   20   23 1
  42   21   22 1
  43   21   23 2
  44   23   24 1
  45   24   25 1
  46   24   44 1
  47   24   45 1
  48   25   26 1
  49   25   27 1
  50   25   46 1
  51   26   27 1
  52   26   47 1
  53   26   48 1
  54   27   49 1
  55   27   50 1

#	End of record

