#	Name: ASD06770028
#	Creating user name:	WinNT
#	Creation time:	15. 06. 2019 21:08

#	Modifying user name:	WinNT
#	Modification time:	15. 06. 2019 21:08

#	Program:	/corina/corina34_cracker 3.40 0067  02.08.2006

@<TRIPOS>MOLECULE
ASD06770028
  50   54    0    0    0
SMALL
NO_CHARGES


@<TRIPOS>ATOM
   1 N1            -0.4727     1.1083     0.9412 N.2     
   2 N2            -0.3632    -0.1734     0.8412 N.2     
   3 C3             0.8487    -0.4898     0.4530 C.2     
   4 N4             1.5212     0.6663     0.3089 N.pl3   
   5 C5             2.8370     0.9554    -0.0710 C.ar    
   6 C6             3.5279     1.9033     0.6838 C.ar    
   7 C7             2.8832     2.4466     1.9240 C.3     
   8 O8             1.8895     3.4529     1.6710 O.3     
   9 C9             1.0227     3.1239     0.5760 C.3     
  10 C10            0.6536     1.6698     0.6232 C.2     
  11 C11            4.7930     2.2915     0.2993 C.ar    
  12 C12            5.3920     1.7004    -0.8006 C.ar    
  13 C13            4.7258     0.7221    -1.5173 C.ar    
  14 C14            3.4442     0.3491    -1.1536 C.ar    
  15 C15            1.3839    -1.8782     0.2146 C.3     
  16 C16            1.2895    -2.6902     1.5080 C.3     
  17 C17            1.8329    -4.0998     1.2660 C.3     
  18 C18            1.0086    -4.7835     0.1733 C.3     
  19 C19            1.1030    -3.9716    -1.1200 C.3     
  20 C20            0.5596    -2.5620    -0.8781 C.3     
  21 O21            1.5161    -6.1001    -0.0527 O.3     
  22 C22            0.6515    -7.0152    -0.5646 C.ar    
  23 C23            1.0427    -8.3389    -0.7038 C.ar    
  24 C24            0.1620    -9.2671    -1.2245 C.ar    
  25 C25           -1.1084    -8.8778    -1.6068 C.ar    
  26 C26           -1.5006    -7.5591    -1.4695 C.ar    
  27 C27           -0.6257    -6.6283    -0.9436 C.ar    
  28 Cl28           6.9863     2.1896    -1.2829 Cl      
  29 H29            2.4142     1.6224     2.4614 H       
  30 H30            3.6582     2.8754     2.5593 H       
  31 H31            0.1176     3.7281     0.6381 H       
  32 H32            1.5319     3.3366    -0.3639 H       
  33 H33            5.3164     3.0558     0.8546 H       
  34 H34            5.2065     0.2494    -2.3611 H       
  35 H35            2.9212    -0.4126    -1.7129 H       
  36 H36            2.4255    -1.8170    -0.1007 H       
  37 H37            1.8767    -2.2031     2.2864 H       
  38 H38            0.2479    -2.7514     1.8233 H       
  39 H39            2.8745    -4.0385     0.9507 H       
  40 H40            1.7656    -4.6782     2.1874 H       
  41 H41           -0.0330    -4.8448     0.4887 H       
  42 H42            2.1446    -3.9103    -1.4353 H       
  43 H43            0.5158    -4.4587    -1.8985 H       
  44 H44           -0.4820    -2.6232    -0.5627 H       
  45 H45            0.6269    -1.9835    -1.7995 H       
  46 H46            2.0351    -8.6434    -0.4057 H       
  47 H47            0.4662   -10.2976    -1.3334 H       
  48 H48           -1.7955    -9.6050    -2.0137 H       
  49 H49           -2.4933    -7.2574    -1.7695 H       
  50 H50           -0.9342    -5.5993    -0.8320 H       
@<TRIPOS>BOND
   1    1    2 1
   2    1   10 2
   3    2    3 2
   4    3    4 1
   5    3   15 1
   6    4    5 1
   7    4   10 1
   8    5    6 ar
   9    5   14 ar
  10    6    7 1
  11    6   11 ar
  12    7    8 1
  13    7   29 1
  14    7   30 1
  15    8    9 1
  16    9   10 1
  17    9   31 1
  18    9   32 1
  19   11   12 ar
  20   11   33 1
  21   12   13 ar
  22   12   28 1
  23   13   14 ar
  24   13   34 1
  25   14   35 1
  26   15   16 1
  27   15   20 1
  28   15   36 1
  29   16   17 1
  30   16   37 1
  31   16   38 1
  32   17   18 1
  33   17   39 1
  34   17   40 1
  35   18   19 1
  36   18   21 1
  37   18   41 1
  38   19   20 1
  39   19   42 1
  40   19   43 1
  41   20   44 1
  42   20   45 1
  43   21   22 1
  44   22   23 ar
  45   22   27 ar
  46   23   24 ar
  47   23   46 1
  48   24   25 ar
  49   24   47 1
  50   25   26 ar
  51   25   48 1
  52   26   27 ar
  53   26   49 1
  54   27   50 1

#	End of record

