#	Name: ASD01870076
#	Creating user name:	WinNT
#	Creation time:	15. 06. 2019 19:38

#	Modifying user name:	WinNT
#	Modification time:	15. 06. 2019 19:38

#	Program:	/corina/corina34_cracker 3.40 0067  02.08.2006

@<TRIPOS>MOLECULE
ASD01870076
  40   42    0    0    0
SMALL
NO_CHARGES


@<TRIPOS>ATOM
   1 C1            -0.0167     1.3782     0.0096 C.ar    
   2 C2             0.0021    -0.0041     0.0020 C.ar    
   3 C3            -1.1849    -0.7118     0.0100 C.ar    
   4 C4            -2.3932    -0.0359     0.0256 C.ar    
   5 C5            -2.4107     1.3486     0.0332 C.ar    
   6 C6            -1.2224     2.0541     0.0305 C.ar    
   7 F7            -3.5542    -0.7267     0.0330 F       
   8 C8             1.2784     2.1488     0.0014 C.3     
   9 N9             1.1581     3.3194    -0.8799 N.am    
  10 C10            1.3502     4.5392    -0.0746 C.3     
  11 C11            2.1820     4.0797     1.1488 C.3     
  12 C12            1.5862     2.6730     1.4199 C.3     
  13 S13            0.8574     3.2751    -2.5078 S.o2    
  14 C14           -0.8916     3.3199    -2.7166 C.ar    
  15 C15           -1.5424     4.5335    -2.8376 C.ar    
  16 C16           -2.9145     4.5687    -3.0013 C.ar    
  17 C17           -3.6359     3.3903    -3.0446 C.ar    
  18 C18           -2.9850     2.1766    -2.9245 C.ar    
  19 C19           -1.6123     2.1413    -2.7651 C.ar    
  20 C20           -5.1319     3.4286    -3.2221 C.3     
  21 O21            1.3566     4.4939    -3.0414 O.2     
  22 O22            1.2828     1.9968    -2.9598 O.2     
  23 H23            0.9447    -0.5311    -0.0105 H       
  24 H24           -1.1700    -1.7917     0.0037 H       
  25 H25           -3.3526     1.8768     0.0454 H       
  26 H26           -1.2359     3.1340     0.0365 H       
  27 H27            2.0892     1.5071    -0.3433 H       
  28 H28            1.8981     5.2886    -0.6459 H       
  29 H29            0.3878     4.9361     0.2484 H       
  30 H30            3.2409     4.0141     0.8990 H       
  31 H31            2.0233     4.7418     2.0000 H       
  32 H32            0.6729     2.7481     2.0099 H       
  33 H33            2.3163     2.0342     1.9170 H       
  34 H34           -0.9788     5.4542    -2.8038 H       
  35 H35           -3.4230     5.5168    -3.0952 H       
  36 H36           -3.5486     1.2560    -2.9579 H       
  37 H37           -1.1038     1.1932    -2.6712 H       
  38 H38           -5.3725     3.4018    -4.2849 H       
  39 H39           -5.5788     2.5668    -2.7265 H       
  40 H40           -5.5264     4.3451    -2.7833 H       
@<TRIPOS>BOND
   1    1    2 ar
   2    1    8 1
   3    1    6 ar
   4    2    3 ar
   5    2   23 1
   6    3    4 ar
   7    3   24 1
   8    4    5 ar
   9    4    7 1
  10    5    6 ar
  11    5   25 1
  12    6   26 1
  13    8    9 1
  14    8   12 1
  15    8   27 1
  16    9   10 1
  17    9   13 am
  18   10   11 1
  19   10   28 1
  20   10   29 1
  21   11   12 1
  22   11   30 1
  23   11   31 1
  24   12   32 1
  25   12   33 1
  26   13   14 1
  27   13   21 2
  28   13   22 2
  29   14   15 ar
  30   14   19 ar
  31   15   16 ar
  32   15   34 1
  33   16   17 ar
  34   16   35 1
  35   17   18 ar
  36   17   20 1
  37   18   19 ar
  38   18   36 1
  39   19   37 1
  40   20   38 1
  41   20   39 1
  42   20   40 1

#	End of record

