#	Name: ASD03910021
#	Creating user name:	WinNT
#	Creation time:	15. 06. 2019 20:47

#	Modifying user name:	WinNT
#	Modification time:	15. 06. 2019 20:47

#	Program:	/corina/corina34_cracker 3.40 0067  02.08.2006

@<TRIPOS>MOLECULE
ASD03910021
  55   57    0    0    0
SMALL
NO_CHARGES


@<TRIPOS>ATOM
   1 C1            -0.5824    -0.5568     0.4202 C.ar    
   2 C2             0.4412     0.0279     1.1431 C.ar    
   3 C3             0.2349     1.2333     1.7885 C.ar    
   4 C4            -0.9951     1.8569     1.7135 C.ar    
   5 C5            -2.0252     1.2723     0.9884 C.ar    
   6 C6            -1.8129     0.0647     0.3362 C.ar    
   7 N7            -3.2726     1.9015     0.9103 N.am    
   8 C8            -3.3480     3.2468     0.8799 C.2     
   9 C9            -4.6812     3.9225     0.6876 C.3     
  10 O10           -2.3430     3.9136     1.0073 O.2     
  11 C11           -4.4918     5.4176     0.6911 C.ar    
  12 C12           -4.2428     6.0845    -0.4942 C.ar    
  13 C13           -4.0688     7.4549    -0.4936 C.ar    
  14 C14           -4.1440     8.1620     0.6976 C.ar    
  15 C15           -4.3940     7.4905     1.8856 C.ar    
  16 C16           -4.5729     6.1207     1.8789 C.ar    
  17 O17           -3.9727     9.5102     0.7009 O.3     
  18 C18           -4.1832    10.1879     1.9413 C.3     
  19 C19           -5.5509     9.8706     2.4887 C.2     
  20 C20           -3.0865     9.7998     2.9639 C.3     
  21 C21           -1.8974    10.7012     2.5485 C.3     
  22 C22           -2.5572    12.0366     2.1469 C.3     
  23 C23           -4.0140    11.7105     1.7601 C.3     
  24 C24           -0.3532    -1.8705    -0.2817 C.3     
  25 C25            1.3533     1.8670     2.5752 C.3     
  26 O26           -5.7132     9.7578     3.6807 O.2     
  27 O27           -6.5888     9.7133     1.6522 O.3     
  28 C28           -0.9446    10.9079     3.7276 C.3     
  29 H29            1.4038    -0.4580     1.2039 H       
  30 H30           -1.1559     2.7980     2.2184 H       
  31 H31           -2.6119    -0.3923    -0.2288 H       
  32 H32           -4.0830     1.3694     0.8781 H       
  33 H33           -5.1114     3.6130    -0.2649 H       
  34 H34           -5.3524     3.6394     1.4984 H       
  35 H35           -4.1840     5.5335    -1.4212 H       
  36 H36           -3.8740     7.9754    -1.4196 H       
  37 H37           -4.4530     8.0387     2.8142 H       
  38 H38           -4.7675     5.5974     2.8034 H       
  39 H39           -3.4077    10.0282     3.9801 H       
  40 H40           -2.8244     8.7461     2.8680 H       
  41 H41           -1.3677    10.2672     1.7004 H       
  42 H42           -2.5409    12.7290     2.9885 H       
  43 H43           -2.0332    12.4708     1.2954 H       
  44 H44           -4.1952    11.9865     0.7213 H       
  45 H45           -4.7026    12.2450     2.4144 H       
  46 H46           -0.6048    -2.6905     0.3909 H       
  47 H47           -0.9830    -1.9227    -1.1698 H       
  48 H48            0.6940    -1.9485    -0.5738 H       
  49 H49            1.9298     2.5231     1.9231 H       
  50 H50            0.9354     2.4479     3.3974 H       
  51 H51            2.0035     1.0884     2.9740 H       
  52 H52           -7.4465     9.5107     2.0501 H       
  53 H53           -0.5594     9.9429     4.0570 H       
  54 H54           -0.1153    11.5436     3.4175 H       
  55 H55           -1.4805    11.3846     4.5485 H       
@<TRIPOS>BOND
   1    1    2 ar
   2    1   24 1
   3    1    6 ar
   4    2    3 ar
   5    2   29 1
   6    3    4 ar
   7    3   25 1
   8    4    5 ar
   9    4   30 1
  10    5    6 ar
  11    5    7 1
  12    6   31 1
  13    7    8 am
  14    7   32 1
  15    8    9 1
  16    8   10 2
  17    9   11 1
  18    9   33 1
  19    9   34 1
  20   11   12 ar
  21   11   16 ar
  22   12   13 ar
  23   12   35 1
  24   13   14 ar
  25   13   36 1
  26   14   15 ar
  27   14   17 1
  28   15   16 ar
  29   15   37 1
  30   16   38 1
  31   17   18 1
  32   18   19 1
  33   18   20 1
  34   18   23 1
  35   19   26 2
  36   19   27 1
  37   20   21 1
  38   20   39 1
  39   20   40 1
  40   21   22 1
  41   21   28 1
  42   21   41 1
  43   22   23 1
  44   22   42 1
  45   22   43 1
  46   23   44 1
  47   23   45 1
  48   24   46 1
  49   24   47 1
  50   24   48 1
  51   25   49 1
  52   25   50 1
  53   25   51 1
  54   27   52 1
  55   28   53 1
  56   28   54 1
  57   28   55 1

#	End of record

