#	Name: ASD00310247
#	Creating user name:	WinNT
#	Creation time:	15. 06. 2019 18:34

#	Modifying user name:	WinNT
#	Modification time:	15. 06. 2019 18:34

#	Program:	/corina/corina34_cracker 3.40 0067  02.08.2006

@<TRIPOS>MOLECULE
ASD00310247
  49   52    0    0    0
SMALL
NO_CHARGES


@<TRIPOS>ATOM
   1 N1            -0.0121     1.2986     0.0037 N.pl3   
   2 C2             0.0121    -0.0553    -0.0089 C.2     
   3 C3             1.3040    -0.4940    -0.0250 C.2     
   4 C4             2.1542     0.7119    -0.0220 C.ar    
   5 C5             3.5288     0.9223    -0.0330 C.ar    
   6 C6             4.0241     2.2199    -0.0259 C.ar    
   7 C7             3.1421     3.3059    -0.0077 C.ar    
   8 C8             1.7814     3.0999     0.0032 C.ar    
   9 C9             1.2714     1.8043    -0.0038 C.ar    
  10 C10            1.7581    -1.8891    -0.0415 C.2     
  11 O11            2.9476    -2.1412    -0.0546 O.2     
  12 O12            0.8564    -2.8917    -0.0422 O.3     
  13 Cl13           3.7687     4.9248     0.0017 Cl      
  14 C14            5.4891     2.4545    -0.0370 C.ar    
  15 C15            6.0488     3.3384    -0.9576 C.ar    
  16 C16            7.4122     3.5528    -0.9635 C.ar    
  17 C17            8.2227     2.8922    -0.0579 C.ar    
  18 C18            7.6725     2.0138     0.8581 C.ar    
  19 C19            6.3097     1.7962     0.8768 C.ar    
  20 N20           12.3523     2.7292     0.8587 N.am    
  21 C21           11.6560     3.9591     1.2602 C.3     
  22 C22           10.1489     3.6861     1.2873 C.3     
  23 C23            9.7108     3.1301    -0.0696 C.3     
  24 C24           10.4360     1.8099    -0.3401 C.3     
  25 C25           11.9464     2.0617    -0.3856 C.3     
  26 C26           13.3482     2.2259     1.6147 C.2     
  27 O27           13.8511     1.1612     1.3244 O.2     
  28 C28           13.8367     2.9862     2.8206 C.3     
  29 H29           -0.8188     1.8373     0.0125 H       
  30 H30           -0.8602    -0.6922    -0.0061 H       
  31 H31            4.2070     0.0819    -0.0467 H       
  32 H32            1.1083     3.9444     0.0172 H       
  33 H33            1.2034    -3.7942    -0.0534 H       
  34 H34            5.4169     3.8543    -1.6653 H       
  35 H35            7.8471     4.2373    -1.6767 H       
  36 H36            8.3100     1.5007     1.5629 H       
  37 H37            5.8807     1.1135     1.5953 H       
  38 H38           11.9906     4.2610     2.2527 H       
  39 H39           11.8710     4.7514     0.5432 H       
  40 H40            9.9248     2.9590     2.0679 H       
  41 H41            9.6146     4.6143     1.4899 H       
  42 H42            9.9578     3.8470    -0.8526 H       
  43 H43           10.2093     1.1005     0.4558 H       
  44 H44           10.1061     1.4028    -1.2959 H       
  45 H45           12.1851     2.6993    -1.2369 H       
  46 H46           12.4726     1.1117    -0.4791 H       
  47 H47           13.2055     2.7522     3.6779 H       
  48 H48           14.8658     2.7000     3.0382 H       
  49 H49           13.7923     4.0563     2.6181 H       
@<TRIPOS>BOND
   1    1    2 1
   2    1    9 1
   3    1   29 1
   4    2    3 2
   5    2   30 1
   6    3    4 1
   7    3   10 1
   8    4    5 ar
   9    4    9 ar
  10    5    6 ar
  11    5   31 1
  12    6    7 ar
  13    6   14 1
  14    7    8 ar
  15    7   13 1
  16    8    9 ar
  17    8   32 1
  18   10   11 2
  19   10   12 1
  20   12   33 1
  21   14   15 ar
  22   14   19 ar
  23   15   16 ar
  24   15   34 1
  25   16   17 ar
  26   16   35 1
  27   17   18 ar
  28   17   23 1
  29   18   19 ar
  30   18   36 1
  31   19   37 1
  32   20   21 1
  33   20   25 1
  34   20   26 am
  35   21   22 1
  36   21   38 1
  37   21   39 1
  38   22   23 1
  39   22   40 1
  40   22   41 1
  41   23   24 1
  42   23   42 1
  43   24   25 1
  44   24   43 1
  45   24   44 1
  46   25   45 1
  47   25   46 1
  48   26   27 2
  49   26   28 1
  50   28   47 1
  51   28   48 1
  52   28   49 1

#	End of record

