#	Name: ASD03380003
#	Creating user name:	WinNT
#	Creation time:	15. 06. 2019 20:40

#	Modifying user name:	WinNT
#	Modification time:	15. 06. 2019 20:40

#	Program:	/corina/corina34_cracker 3.40 0067  02.08.2006

@<TRIPOS>MOLECULE
ASD03380003
  54   55    0    0    0
SMALL
NO_CHARGES


@<TRIPOS>ATOM
   1 C1            -0.0184     1.5028     0.0103 C.2     
   2 N2             1.3055    -0.4734    -0.4867 N.3     
   3 C3             0.0021    -0.0041     0.0020 C.3     
   4 C4            -0.2279    -0.5251     1.4221 C.3     
   5 C5            -0.3300    -2.0284     1.3953 C.ar    
   6 C6             0.8076    -2.8001     1.5442 C.ar    
   7 C7             0.7167    -4.1783     1.5195 C.ar    
   8 C8            -0.5173    -4.7880     1.3456 C.ar    
   9 O9            -0.6093    -6.1436     1.3214 O.3     
  10 C10           -1.6572    -4.0114     1.1968 C.ar    
  11 C11           -1.5617    -2.6336     1.2274 C.ar    
  12 O12            1.0236     2.1234     0.0037 O.2     
  13 N13           -1.1946     2.1607     0.0195 N.am    
  14 C14           -1.2145     3.6256     0.0275 C.3     
  15 C15           -1.1025     4.1450    -1.4072 C.3     
  16 C16           -2.5060     4.1071     0.6367 C.2     
  17 N17           -2.7466     5.4284     0.7491 N.am    
  18 O18           -3.3288     3.3056     1.0259 O.2     
  19 C19           -4.0022     5.8965     1.3414 C.3     
  20 C20           -3.8642     5.9408     2.8414 C.2     
  21 O21           -4.8971     6.3424     3.5988 O.3     
  22 C22           -4.3222     7.2978     0.8170 C.3     
  23 C23           -4.5811     7.2321    -0.6661 C.ar    
  24 O24           -2.8239     5.6148     3.3623 O.2     
  25 C25           -5.8633     7.0154    -1.1350 C.ar    
  26 C26           -6.1007     6.9552    -2.4955 C.ar    
  27 C27           -5.0561     7.1121    -3.3870 C.ar    
  28 C28           -3.7740     7.3297    -2.9182 C.ar    
  29 C29           -3.5372     7.3943    -1.5578 C.ar    
  30 H30            2.0536    -0.1430     0.1043 H       
  31 H31            1.3222    -1.4794    -0.5627 H       
  32 H32           -0.7864    -0.3745    -0.6531 H       
  33 H33            0.6068    -0.2288     2.0574 H       
  34 H34           -1.1526    -0.1051     1.8179 H       
  35 H35            1.7680    -2.3250     1.6796 H       
  36 H36            1.6056    -4.7807     1.6352 H       
  37 H37           -0.7556    -6.5435     2.1896 H       
  38 H38           -2.6189    -4.4836     1.0609 H       
  39 H39           -2.4494    -2.0286     1.1160 H       
  40 H40           -2.0280     1.6644     0.0207 H       
  41 H41           -0.3749     3.9971     0.6150 H       
  42 H42           -1.1173     5.2349    -1.4012 H       
  43 H43           -0.1683     3.7967    -1.8479 H       
  44 H44           -1.9421     3.7735    -1.9947 H       
  45 H45           -2.0885     6.0694     0.4379 H       
  46 H46           -4.8081     5.2144     1.0706 H       
  47 H47           -4.7611     6.3542     4.5561 H       
  48 H48           -5.2075     7.6819     1.3237 H       
  49 H49           -3.4776     7.9594     1.0095 H       
  50 H50           -6.6795     6.8928    -0.4384 H       
  51 H51           -7.1024     6.7852    -2.8618 H       
  52 H52           -5.2415     7.0643    -4.4499 H       
  53 H53           -2.9578     7.4520    -3.6147 H       
  54 H54           -2.5356     7.5643    -1.1914 H       
@<TRIPOS>BOND
   1    1    3 1
   2    1   12 2
   3    1   13 am
   4    2    3 1
   5    2   30 1
   6    2   31 1
   7    3    4 1
   8    3   32 1
   9    4    5 1
  10    4   33 1
  11    4   34 1
  12    5    6 ar
  13    5   11 ar
  14    6    7 ar
  15    6   35 1
  16    7    8 ar
  17    7   36 1
  18    8    9 1
  19    8   10 ar
  20    9   37 1
  21   10   11 ar
  22   10   38 1
  23   11   39 1
  24   13   14 1
  25   13   40 1
  26   14   16 1
  27   14   15 1
  28   14   41 1
  29   15   42 1
  30   15   43 1
  31   15   44 1
  32   16   17 am
  33   16   18 2
  34   17   19 1
  35   17   45 1
  36   19   20 1
  37   19   22 1
  38   19   46 1
  39   20   21 1
  40   20   24 2
  41   21   47 1
  42   22   23 1
  43   22   48 1
  44   22   49 1
  45   23   25 ar
  46   23   29 ar
  47   25   26 ar
  48   25   50 1
  49   26   27 ar
  50   26   51 1
  51   27   28 ar
  52   27   52 1
  53   28   29 ar
  54   28   53 1
  55   29   54 1

#	End of record

