#	Name: ASD00431407
#	Creating user name:	WinNT
#	Creation time:	15. 06. 2019 18:35

#	Modifying user name:	WinNT
#	Modification time:	15. 06. 2019 18:35

#	Program:	/corina/corina34_cracker 3.40 0067  02.08.2006

@<TRIPOS>MOLECULE
ASD00431407
  28   29    0    0    0
SMALL
NO_CHARGES


@<TRIPOS>ATOM
   1 C1            -0.0210     1.3754    -0.1132 C.ar    
   2 C2             0.0035    -0.0120    -0.1750 C.ar    
   3 C3             1.2220    -0.6666    -0.1497 C.ar    
   4 C4             2.3834     0.0969    -0.0628 C.ar    
   5 C5             2.2813     1.4773    -0.0049 C.ar    
   6 N6             1.1018     2.0684    -0.0312 N.ar    
   7 O7             3.6024    -0.5049    -0.0347 O.3     
   8 S8             5.0600    -2.8047    -0.0592 S.3     
   9 C9             3.6428    -1.8562     0.0624 C.2     
  10 N10            2.6133    -2.6168     0.2612 N.2     
  11 C11            2.8347    -3.9168     0.3300 C.2     
  12 C12            4.1124    -4.2702     0.1822 C.2     
  13 O13           -1.2114     2.0274    -0.1430 O.3     
  14 C14           -1.1713     3.4543    -0.0763 C.3     
  15 C15           -2.3683     4.0340    -0.8326 C.3     
  16 C16           -1.2289     3.8982     1.3868 C.3     
  17 H17           -0.9171    -0.5727    -0.2415 H       
  18 H18            1.2714    -1.7445    -0.1960 H       
  19 H19            3.1773     2.0765     0.0626 H       
  20 H20            2.0452    -4.6356     0.4928 H       
  21 H21            4.4985    -5.2786     0.2057 H       
  22 H22           -0.2470     3.8134    -0.5288 H       
  23 H23           -3.2926     3.6749    -0.3800 H       
  24 H24           -2.3378     5.1224    -0.7816 H       
  25 H25           -2.3273     3.7178    -1.8749 H       
  26 H26           -1.1983     4.9866     1.4377 H       
  27 H27           -2.1532     3.5391     1.8394 H       
  28 H28           -0.3761     3.4852     1.9256 H       
@<TRIPOS>BOND
   1    1    2 ar
   2    1    6 ar
   3    1   13 1
   4    2    3 ar
   5    2   17 1
   6    3    4 ar
   7    3   18 1
   8    4    5 ar
   9    4    7 1
  10    5    6 ar
  11    5   19 1
  12    7    9 1
  13    8    9 1
  14    8   12 1
  15    9   10 2
  16   10   11 1
  17   11   12 2
  18   11   20 1
  19   12   21 1
  20   13   14 1
  21   14   15 1
  22   14   16 1
  23   14   22 1
  24   15   23 1
  25   15   24 1
  26   15   25 1
  27   16   26 1
  28   16   27 1
  29   16   28 1

#	End of record

