#	Name: ASD01100014
#	Creating user name:	WinNT
#	Creation time:	15. 06. 2019 18:58

#	Modifying user name:	WinNT
#	Modification time:	15. 06. 2019 18:58

#	Program:	/corina/corina34_cracker 3.40 0067  02.08.2006

@<TRIPOS>MOLECULE
ASD01100014
  31   31    0    0    0
SMALL
NO_CHARGES


@<TRIPOS>ATOM
   1 C1             0.1626     1.3007    -0.9281 C.ar    
   2 C2             0.2376    -0.0790    -0.9987 C.ar    
   3 C3             1.4368    -0.7200    -0.7436 C.ar    
   4 C4             2.5591     0.0182    -0.4184 C.ar    
   5 C5             2.4836     1.3967    -0.3480 C.ar    
   6 C6             1.2856     2.0378    -0.6028 C.ar    
   7 C7             3.7076     2.2010     0.0071 C.3     
   8 C8             3.4386     3.0032     1.2819 C.3     
   9 C9             3.2235     2.0426     2.4531 C.3     
  10 C10            4.6366     3.9078     1.5775 C.3     
  11 Cl11          -1.1727    -1.0055    -1.4066 Cl      
  12 C12            4.0331     3.1452    -1.1214 C.2     
  13 N13            5.1872     3.8410    -1.1062 N.am    
  14 O14            3.2564     3.2790    -2.0432 O.2     
  15 C15            5.4658     4.8207    -2.1592 C.3     
  16 H16           -0.7722     1.8020    -1.1314 H       
  17 H17            1.4958    -1.7970    -0.7982 H       
  18 H18            3.4952    -0.4821    -0.2189 H       
  19 H19            1.2272     3.1148    -0.5476 H       
  20 H20            4.5492     1.5281     0.1720 H       
  21 H21            2.5467     3.6146     1.1449 H       
  22 H22            4.1154     1.4311     2.5901 H       
  23 H23            3.0319     2.6141     3.3613 H       
  24 H24            2.3700     1.3981     2.2425 H       
  25 H25            4.8524     4.5222     0.7035 H       
  26 H26            4.4051     4.5516     2.4261 H       
  27 H27            5.5058     3.2939     1.8137 H       
  28 H28            5.8334     3.6932    -0.3981 H       
  29 H29            6.4382     5.2796    -1.9805 H       
  30 H30            5.4723     4.3210    -3.1279 H       
  31 H31            4.6941     5.5905    -2.1527 H       
@<TRIPOS>BOND
   1    1    2 ar
   2    1    6 ar
   3    1   16 1
   4    2    3 ar
   5    2   11 1
   6    3    4 ar
   7    3   17 1
   8    4    5 ar
   9    4   18 1
  10    5    6 ar
  11    5    7 1
  12    6   19 1
  13    7    8 1
  14    7   12 1
  15    7   20 1
  16    8    9 1
  17    8   10 1
  18    8   21 1
  19    9   22 1
  20    9   23 1
  21    9   24 1
  22   10   25 1
  23   10   26 1
  24   10   27 1
  25   12   13 am
  26   12   14 2
  27   13   15 1
  28   13   28 1
  29   15   29 1
  30   15   30 1
  31   15   31 1

#	End of record

