#	Name: ASD03430675
#	Creating user name:	WinNT
#	Creation time:	15. 06. 2019 20:41

#	Modifying user name:	WinNT
#	Modification time:	15. 06. 2019 20:41

#	Program:	/corina/corina34_cracker 3.40 0067  02.08.2006

@<TRIPOS>MOLECULE
ASD03430675
  58   63    0    0    0
SMALL
NO_CHARGES


@<TRIPOS>ATOM
   1 C1             2.6679     0.3894     0.0022 C.ar    
   2 C2             2.1010    -0.8713    -0.0371 C.ar    
   3 C3             2.8908    -1.9787    -0.2588 C.ar    
   4 C4             4.2653    -1.8433    -0.4325 C.ar    
   5 C5             4.8263    -0.5697    -0.3964 C.ar    
   6 C6             4.0308     0.5361    -0.1810 C.ar    
   7 O7             4.8632    -3.0555    -0.6057 O.3     
   8 C8             2.5851    -3.4468    -0.3836 C.3     
   9 C9             3.8701    -4.0242    -0.9935 C.3     
  10 C10            0.9913    -4.6370     0.7841 C.ar    
  11 C11            2.2583    -4.0794     0.9363 C.ar    
  12 C12            1.3903    -3.7067    -1.2561 C.2     
  13 N13            0.5119    -4.4021    -0.5068 N.am    
  14 O14            1.2445    -3.3587    -2.4088 O.2     
  15 C15            2.9302    -4.1848     2.1338 C.ar    
  16 C16            2.3492    -4.8500     3.1986 C.ar    
  17 C17            1.0919    -5.4089     3.0580 C.ar    
  18 C18            0.4145    -5.3060     1.8610 C.ar    
  19 C19           -0.7934    -4.8590    -0.9901 C.3     
  20 C20            4.6491     1.9100    -0.1456 C.3     
  21 C21            1.8023     1.6004     0.2377 C.3     
  22 C22           -1.8852    -4.1991    -0.1878 C.ar    
  23 C23           -3.0277    -4.9062     0.1373 C.ar    
  24 C24           -4.0292    -4.3009     0.8732 C.ar    
  25 C25           -3.8879    -2.9887     1.2845 C.ar    
  26 C26           -2.7450    -2.2820     0.9602 C.ar    
  27 C27           -1.7416    -2.8886     0.2280 C.ar    
  28 C28           -0.9471    -4.4928    -2.4439 C.ar    
  29 C29           -0.8998    -5.4771    -3.4133 C.ar    
  30 C30           -1.0407    -5.1412    -4.7468 C.ar    
  31 C31           -1.2294    -3.8211    -5.1108 C.ar    
  32 C32           -1.2777    -2.8369    -4.1413 C.ar    
  33 C33           -1.1411    -3.1733    -2.8075 C.ar    
  34 H34            1.0370    -0.9884     0.1066 H       
  35 H35            5.8900    -0.4470    -0.5378 H       
  36 H36            3.7905    -4.0835    -2.0790 H       
  37 H37            4.0957    -5.0016    -0.5670 H       
  38 H38            3.9117    -3.7473     2.2418 H       
  39 H39            2.8763    -4.9329     4.1376 H       
  40 H40            0.6387    -5.9287     3.8891 H       
  41 H41           -0.5669    -5.7451     1.7586 H       
  42 H42           -0.8639    -5.9410    -0.8786 H       
  43 H43            4.9442     2.1494     0.8760 H       
  44 H44            5.5268     1.9301    -0.7916 H       
  45 H45            3.9234     2.6442    -0.4957 H       
  46 H46            1.7357     1.7968     1.3077 H       
  47 H47            2.2406     2.4633    -0.2636 H       
  48 H48            0.8045     1.4168    -0.1608 H       
  49 H49           -3.1381    -5.9313    -0.1841 H       
  50 H50           -4.9221    -4.8531     1.1266 H       
  51 H51           -4.6706    -2.5156     1.8589 H       
  52 H52           -2.6348    -1.2567     1.2813 H       
  53 H53           -0.8471    -2.3376    -0.0221 H       
  54 H54           -0.7523    -6.5085    -3.1289 H       
  55 H55           -1.0030    -5.9101    -5.5042 H       
  56 H56           -1.3388    -3.5586    -6.1527 H       
  57 H57           -1.4248    -1.8054    -4.4257 H       
  58 H58           -1.1825    -2.4049    -2.0498 H       
@<TRIPOS>BOND
   1    1    2 ar
   2    1    6 ar
   3    1   21 1
   4    2    3 ar
   5    2   34 1
   6    3    4 ar
   7    3    8 1
   8    4    5 ar
   9    4    7 1
  10    5    6 ar
  11    5   35 1
  12    6   20 1
  13    7    9 1
  14    8    9 1
  15    8   11 1
  16    8   12 1
  17    9   36 1
  18    9   37 1
  19   10   11 ar
  20   10   13 1
  21   10   18 ar
  22   11   15 ar
  23   12   13 am
  24   12   14 2
  25   13   19 1
  26   15   16 ar
  27   15   38 1
  28   16   17 ar
  29   16   39 1
  30   17   18 ar
  31   17   40 1
  32   18   41 1
  33   19   22 1
  34   19   28 1
  35   19   42 1
  36   20   43 1
  37   20   44 1
  38   20   45 1
  39   21   46 1
  40   21   47 1
  41   21   48 1
  42   22   23 ar
  43   22   27 ar
  44   23   24 ar
  45   23   49 1
  46   24   25 ar
  47   24   50 1
  48   25   26 ar
  49   25   51 1
  50   26   27 ar
  51   26   52 1
  52   27   53 1
  53   28   29 ar
  54   28   33 ar
  55   29   30 ar
  56   29   54 1
  57   30   31 ar
  58   30   55 1
  59   31   32 ar
  60   31   56 1
  61   32   33 ar
  62   32   57 1
  63   33   58 1

#	End of record

