#	Name: ASD01814533
#	Creating user name:	WinNT
#	Creation time:	15. 06. 2019 19:32

#	Modifying user name:	WinNT
#	Modification time:	15. 06. 2019 19:32

#	Program:	/corina/corina34_cracker 3.40 0067  02.08.2006

@<TRIPOS>MOLECULE
ASD01814533
  57   62    0    0    0
SMALL
NO_CHARGES


@<TRIPOS>ATOM
   1 C1            -0.0421     1.3932    -0.0811 C.ar    
   2 C2            -0.0281     0.0054    -0.1017 C.ar    
   3 C3            -1.2183    -0.6965    -0.1108 C.ar    
   4 C4            -2.4233    -0.0188    -0.0994 C.ar    
   5 C5            -2.4428     1.3640    -0.0789 C.ar    
   6 C6            -1.2558     2.0730    -0.0643 C.ar    
   7 F7            -1.2746     3.4237    -0.0442 F       
   8 N8             1.1627     2.1073    -0.0713 N.am    
   9 C9             1.8783     2.4365    -1.1665 C.2     
  10 N10            1.8014     2.5914     1.0747 N.2     
  11 C11            2.9031     3.2125     0.7385 C.2     
  12 C12            3.0091     3.1442    -0.7229 C.2     
  13 O13            1.5968     2.1691    -2.3263 O.2     
  14 N14            3.8946     3.8664     1.4537 N.pl3   
  15 C15            4.9506     4.4318     0.7955 C.2     
  16 C16            5.0571     4.3663    -0.6027 C.2     
  17 C17            4.1122     3.7389    -1.3566 C.2     
  18 C18            3.8069     3.9399     2.8075 C.2     
  19 C19            4.7603     4.5722     3.5322 C.2     
  20 C20            5.8548     5.1613     2.8882 C.2     
  21 C21            5.9508     5.0926     1.5285 C.2     
  22 C22            6.2400     5.0052    -1.2835 C.3     
  23 N23            7.2832     3.9946    -1.5032 N.3     
  24 C24            6.8359     2.9761    -2.4626 C.3     
  25 C25            7.9690     2.0445    -2.7880 C.2     
  26 N26            9.2472     2.3437    -2.5341 N.am    
  27 C27            9.6579     3.5860    -1.8861 C.3     
  28 C28            8.5319     4.6184    -1.9704 C.3     
  29 C29           10.2412     1.4197    -2.9078 C.2     
  30 O30            7.7134     0.9759    -3.3022 O.2     
  31 C31           11.5826     1.6113    -2.8251 C.2     
  32 N32           12.1866     0.4843    -3.2829 N.pl3   
  33 N33           11.1841    -0.4202    -3.6553 N.2     
  34 C34           10.0218     0.1350    -3.4260 C.2     
  35 C35           13.6308     0.2556    -3.3722 C.3     
  36 H36            0.9123    -0.5255    -0.1110 H       
  37 H37           -1.2072    -1.7763    -0.1272 H       
  38 H38           -3.3517    -0.5706    -0.1069 H       
  39 H39           -3.3858     1.8903    -0.0700 H       
  40 H40            4.2109     3.6982    -2.4313 H       
  41 H41            2.9656     3.4885     3.3124 H       
  42 H42            4.6760     4.6224     4.6077 H       
  43 H43            6.6171     5.6665     3.4627 H       
  44 H44            6.7901     5.5428     1.0193 H       
  45 H45            5.9275     5.4191    -2.2422 H       
  46 H46            6.6340     5.8033    -0.6543 H       
  47 H47            6.0130     2.4075    -2.0294 H       
  48 H48            6.4951     3.4641    -3.3758 H       
  49 H49            9.8898     3.3885    -0.8396 H       
  50 H50           10.5452     3.9773    -2.3838 H       
  51 H51            8.4130     4.9462    -3.0031 H       
  52 H52            8.7719     5.4735    -1.3385 H       
  53 H53           12.0792     2.4989    -2.4617 H       
  54 H54            9.0581    -0.3158    -3.6115 H       
  55 H55           13.9864    -0.1891    -2.4427 H       
  56 H56           13.8412    -0.4195    -4.2017 H       
  57 H57           14.1395     1.2051    -3.5385 H       
@<TRIPOS>BOND
   1    1    2 ar
   2    1    8 1
   3    1    6 ar
   4    2    3 ar
   5    2   36 1
   6    3    4 ar
   7    3   37 1
   8    4    5 ar
   9    4   38 1
  10    5    6 ar
  11    5   39 1
  12    6    7 1
  13    8    9 am
  14    8   10 1
  15    9   13 2
  16    9   12 1
  17   10   11 2
  18   11   12 1
  19   11   14 1
  20   12   17 2
  21   14   15 1
  22   14   18 1
  23   15   16 2
  24   15   21 1
  25   16   17 1
  26   16   22 1
  27   17   40 1
  28   18   19 2
  29   18   41 1
  30   19   20 1
  31   19   42 1
  32   20   21 2
  33   20   43 1
  34   21   44 1
  35   22   23 1
  36   22   45 1
  37   22   46 1
  38   23   24 1
  39   23   28 1
  40   24   25 1
  41   24   47 1
  42   24   48 1
  43   25   26 am
  44   25   30 2
  45   26   27 1
  46   26   29 1
  47   27   28 1
  48   27   49 1
  49   27   50 1
  50   28   51 1
  51   28   52 1
  52   29   31 2
  53   29   34 1
  54   31   32 1
  55   31   53 1
  56   32   33 1
  57   32   35 1
  58   33   34 2
  59   34   54 1
  60   35   55 1
  61   35   56 1
  62   35   57 1

#	End of record

