#	Name: ASD01040004
#	Creating user name:	WinNT
#	Creation time:	15. 06. 2019 18:58

#	Modifying user name:	WinNT
#	Modification time:	15. 06. 2019 18:58

#	Program:	/corina/corina34_cracker 3.40 0067  02.08.2006

@<TRIPOS>MOLECULE
ASD01040004
  44   47    0    0    0
SMALL
NO_CHARGES


@<TRIPOS>ATOM
   1 C1            -0.0167     1.3830     0.0096 C.ar    
   2 C2             0.0021    -0.0041     0.0020 C.ar    
   3 C3             1.2136    -0.6736    -0.0177 C.ar    
   4 C4             2.4099     0.0305    -0.0295 C.ar    
   5 C5             2.3869     1.4101    -0.0123 C.ar    
   6 C6             1.1722     2.0815     0.0020 C.ar    
   7 C7             3.6878    -0.7651    -0.0744 C.3     
   8 C8             4.8938     0.1011     0.2871 C.3     
   9 C9             4.8197     1.3891    -0.5323 C.3     
  10 C10            3.6489     2.2228     0.0051 C.3     
  11 C11            6.0685     2.2295    -0.3807 C.3     
  12 C12            5.8983     3.4573    -1.3186 C.3     
  13 C13            4.8070     4.3338    -0.7363 C.3     
  14 C14            3.4952     3.5267    -0.7642 C.3     
  15 C15            7.3780     1.6085    -0.8548 C.3     
  16 C16            8.2152     2.7888    -1.4077 C.3     
  17 C17            7.3115     4.0486    -1.3143 C.3     
  18 O18           -1.1636    -0.7026     0.0143 O.3     
  19 C19            5.5051     2.9949    -2.7230 C.3     
  20 O20            7.5081     4.8972    -2.4471 O.3     
  21 H21           -0.9577     1.9130     0.0170 H       
  22 H22            1.2282    -1.7534    -0.0236 H       
  23 H23            1.1580     3.1614     0.0073 H       
  24 H24            3.6181    -1.5925     0.6317 H       
  25 H25            3.8240    -1.1652    -1.0791 H       
  26 H26            4.8696     0.3398     1.3504 H       
  27 H27            5.8142    -0.4329     0.0505 H       
  28 H28            4.6485     1.1480    -1.5815 H       
  29 H29            3.8682     2.4807     1.0413 H       
  30 H30            6.1660     2.5636     0.6523 H       
  31 H31            5.0554     4.6000     0.2911 H       
  32 H32            4.6982     5.2369    -1.3370 H       
  33 H33            3.2324     3.3045    -1.7984 H       
  34 H34            2.6997     4.1189    -0.3117 H       
  35 H35            7.8961     1.1365    -0.0200 H       
  36 H36            7.1868     0.8795    -1.6423 H       
  37 H37            9.1123     2.9262    -0.8041 H       
  38 H38            8.4877     2.6000    -2.4461 H       
  39 H39            7.5000     4.5907    -0.3876 H       
  40 H40           -1.5131    -0.9000    -0.8655 H       
  41 H41            4.5635     2.4478    -2.6751 H       
  42 H42            5.3884     3.8628    -3.3720 H       
  43 H43            6.2832     2.3445    -3.1225 H       
  44 H44            8.4099     5.2354    -2.5334 H       
@<TRIPOS>BOND
   1    1    2 ar
   2    1    6 ar
   3    1   21 1
   4    2    3 ar
   5    2   18 1
   6    3    4 ar
   7    3   22 1
   8    4    5 ar
   9    4    7 1
  10    5    6 ar
  11    5   10 1
  12    6   23 1
  13    7    8 1
  14    7   24 1
  15    7   25 1
  16    8    9 1
  17    8   26 1
  18    8   27 1
  19    9   10 1
  20    9   11 1
  21    9   28 1
  22   10   14 1
  23   10   29 1
  24   11   12 1
  25   11   15 1
  26   11   30 1
  27   12   13 1
  28   12   19 1
  29   12   17 1
  30   13   14 1
  31   13   31 1
  32   13   32 1
  33   14   33 1
  34   14   34 1
  35   15   16 1
  36   15   35 1
  37   15   36 1
  38   16   17 1
  39   16   37 1
  40   16   38 1
  41   17   20 1
  42   17   39 1
  43   18   40 1
  44   19   41 1
  45   19   42 1
  46   19   43 1
  47   20   44 1

#	End of record

