#	Name: ASD02500231
#	Creating user name:	WinNT
#	Creation time:	15. 06. 2019 20:22

#	Modifying user name:	WinNT
#	Modification time:	15. 06. 2019 20:22

#	Program:	/corina/corina34_cracker 3.40 0067  02.08.2006

@<TRIPOS>MOLECULE
ASD02500231
  59   63    0    0    0
SMALL
NO_CHARGES


@<TRIPOS>ATOM
   1 N1            -4.1258     5.4540    -0.0662 N.ar    
   2 C2            -5.2500     6.0240    -0.4260 C.ar    
   3 C3            -6.4361     5.8127     0.2739 C.ar    
   4 C4            -6.4463     4.9927     1.3660 C.ar    
   5 C5            -5.2372     4.3818     1.7492 C.ar    
   6 C6            -5.1701     3.5271     2.8608 C.ar    
   7 C7            -3.9814     2.9557     3.1995 C.ar    
   8 C8            -2.8296     3.2084     2.4575 C.ar    
   9 C9            -2.8587     4.0318     1.3741 C.ar    
  10 C10           -4.0670     4.6404     0.9929 C.ar    
  11 S11           -1.3871     4.3346     0.4537 S.o2    
  12 O12           -1.2323     5.7460     0.3973 O.2     
  13 O13           -0.3963     3.4646     0.9836 O.2     
  14 N14           -1.6681     3.8325    -1.0991 N.am    
  15 C15           -1.8521     2.4805    -1.3705 C.ar    
  16 C16           -1.3696     1.9381    -2.5597 C.ar    
  17 C17           -1.5504     0.6004    -2.8307 C.ar    
  18 C18           -2.2189    -0.2133    -1.9108 C.ar    
  19 C19           -2.7015     0.3344    -0.7190 C.ar    
  20 C20           -2.5127     1.6714    -0.4511 C.ar    
  21 C21           -2.4149    -1.6469    -2.1980 C.2     
  22 O22           -2.2178    -2.4737    -1.3284 O.2     
  23 N23           -2.8125    -2.0404    -3.4243 N.am    
  24 C24           -3.1492    -3.4468    -3.6860 C.3     
  25 C25           -4.5688    -3.5117    -4.2628 C.3     
  26 N26           -4.6738    -2.5419    -5.3620 N.am    
  27 C27           -4.3371    -1.1355    -5.1003 C.3     
  28 C28           -2.9229    -1.0695    -4.5220 C.3     
  29 C29           -5.3758    -1.9246    -7.6281 C.ar    
  30 C30           -5.6236    -2.3331    -8.9367 C.ar    
  31 C31           -5.9126    -1.3766    -9.8971 C.ar    
  32 C32           -5.9437    -0.0444    -9.5151 C.ar    
  33 C33           -5.6871     0.2899    -8.1952 C.ar    
  34 N34           -5.4155    -0.6383    -7.3039 N.ar    
  35 C35           -5.0714    -2.9353    -6.5882 C.2     
  36 O36           -5.1802    -4.1189    -6.8410 O.2     
  37 Cl37          -0.5403     2.9499    -3.7010 Cl      
  38 H38           -5.2570     6.6751    -1.2877 H       
  39 H39           -7.3465     6.2972    -0.0467 H       
  40 H40           -7.3566     4.8179     1.9204 H       
  41 H41           -6.0560     3.3241     3.4442 H       
  42 H42           -3.9306     2.2982     4.0549 H       
  43 H43           -1.8986     2.7437     2.7468 H       
  44 H44           -1.7044     4.4810    -1.8195 H       
  45 H45           -1.1767     0.1802    -3.7527 H       
  46 H46           -3.2182    -0.2918    -0.0067 H       
  47 H47           -2.8816     2.0939     0.4718 H       
  48 H48           -2.4432    -3.8645    -4.4037 H       
  49 H49           -3.1063    -4.0125    -2.7553 H       
  50 H50           -4.7647    -4.5152    -4.6404 H       
  51 H51           -5.2913    -3.2631    -3.4854 H       
  52 H52           -4.3800    -0.5697    -6.0310 H       
  53 H53           -5.0431    -0.7177    -4.3825 H       
  54 H54           -2.7306    -0.0657    -4.1434 H       
  55 H55           -2.2004    -1.3141    -5.3007 H       
  56 H56           -5.5907    -3.3802    -9.1991 H       
  57 H57           -6.1088    -1.6626   -10.9199 H       
  58 H58           -6.1655     0.7255   -10.2394 H       
  59 H59           -5.7105     1.3268    -7.8941 H       
@<TRIPOS>BOND
   1    1    2 ar
   2    1   10 ar
   3    2    3 ar
   4    2   38 1
   5    3    4 ar
   6    3   39 1
   7    4    5 ar
   8    4   40 1
   9    5    6 ar
  10    5   10 ar
  11    6    7 ar
  12    6   41 1
  13    7    8 ar
  14    7   42 1
  15    8    9 ar
  16    8   43 1
  17    9   10 ar
  18    9   11 1
  19   11   12 2
  20   11   13 2
  21   11   14 am
  22   14   15 1
  23   14   44 1
  24   15   16 ar
  25   15   20 ar
  26   16   17 ar
  27   16   37 1
  28   17   18 ar
  29   17   45 1
  30   18   19 ar
  31   18   21 1
  32   19   20 ar
  33   19   46 1
  34   20   47 1
  35   21   22 2
  36   21   23 am
  37   23   24 1
  38   23   28 1
  39   24   25 1
  40   24   48 1
  41   24   49 1
  42   25   26 1
  43   25   50 1
  44   25   51 1
  45   26   27 1
  46   26   35 am
  47   27   28 1
  48   27   52 1
  49   27   53 1
  50   28   54 1
  51   28   55 1
  52   29   30 ar
  53   29   34 ar
  54   29   35 1
  55   30   31 ar
  56   30   56 1
  57   31   32 ar
  58   31   57 1
  59   32   33 ar
  60   32   58 1
  61   33   34 ar
  62   33   59 1
  63   35   36 2

#	End of record

