#	Name: ASD08178035
#	Creating user name:	WinNT
#	Creation time:	15. 06. 2019 21:18

#	Modifying user name:	WinNT
#	Modification time:	15. 06. 2019 21:18

#	Program:	/corina/corina34_cracker 3.40 0067  02.08.2006

@<TRIPOS>MOLECULE
ASD08178035
  69   72    0    0    0
SMALL
NO_CHARGES


@<TRIPOS>ATOM
   1 C1             0.3877     4.1163    -1.0407 C.2     
   2 C2             0.3994     2.7133    -0.4906 C.3     
   3 C3             0.2487     1.7139    -1.6392 C.3     
   4 S4             0.2627     0.0251    -0.9771 S.3     
   5 C5             0.0763    -0.9976    -2.4636 C.3     
   6 C6             0.0696    -2.4756    -2.0683 C.3     
   7 C7            -0.0852    -3.3253    -3.3032 C.2     
   8 S8            -1.6084    -3.8663    -4.0096 S.3     
   9 C9            -0.7294    -4.6717    -5.2398 C.2     
  10 N10            0.5396    -4.4835    -5.0360 N.2     
  11 N11            0.8758    -3.7847    -4.0397 N.2     
  12 N12           -1.2826    -5.4060    -6.2832 N.am    
  13 C13           -0.4805    -5.9951    -7.1922 C.2     
  14 O14            0.7268    -5.8845    -7.0999 O.2     
  15 N15           -1.0167    -6.7067    -8.2034 N.am    
  16 C16           -0.1905    -7.2371    -9.2010 C.ar    
  17 C17            1.0698    -7.7135    -8.8761 C.ar    
  18 C18           -0.6362    -7.2912   -10.5162 C.ar    
  19 C19            0.1755    -7.8145   -11.5053 C.ar    
  20 C20            1.4341    -8.2867   -11.1935 C.ar    
  21 C21            1.8894    -8.2417    -9.8741 C.ar    
  22 S22            1.7959     5.0393    -1.5667 S.3     
  23 N23           -0.6585     4.8588    -1.2174 N.2     
  24 N24           -0.4596     6.0112    -1.6930 N.2     
  25 C25            0.7652     6.3489    -1.9632 C.2     
  26 N26            1.1721     7.5705    -2.4886 N.am    
  27 C27            0.2598     8.5243    -2.7613 C.2     
  28 O28           -0.9190     8.3168    -2.5479 O.2     
  29 N29            0.6542     9.7082    -3.2705 N.am    
  30 C30           -0.2999    10.6575    -3.6546 C.ar    
  31 C31           -0.0260    12.0130    -3.5166 C.ar    
  32 C32           -1.5155    10.2458    -4.1779 C.ar    
  33 C33           -2.4632    11.1961    -4.5593 C.ar    
  34 C34           -2.1804    12.5556    -4.4111 C.ar    
  35 C35           -0.9648    12.9548    -3.8944 C.ar    
  36 C36           -3.7613    10.7656    -5.1184 C.2     
  37 O37           -4.0049     9.5826    -5.2467 O.2     
  38 O38           -4.6746    11.6852    -5.4859 O.3     
  39 C39           -5.9276    11.1900    -6.0272 C.3     
  40 C40            3.2366    -8.7461    -9.5373 C.2     
  41 O41            3.6306    -8.7059    -8.3890 O.2     
  42 O42            4.0280    -9.2505   -10.5036 O.3     
  43 C43            5.3387    -9.7277   -10.1001 C.3     
  44 H44            1.3421     2.5335     0.0261 H       
  45 H45           -0.4275     2.5904     0.2088 H       
  46 H46           -0.6941     1.8937    -2.1560 H       
  47 H47            1.0756     1.8368    -2.3387 H       
  48 H48           -0.8621    -0.7500    -2.9597 H       
  49 H49            0.9075    -0.8069    -3.1424 H       
  50 H50            1.0080    -2.7233    -1.5722 H       
  51 H51           -0.7616    -2.6664    -1.3895 H       
  52 H52           -2.2458    -5.4942    -6.3569 H       
  53 H53           -1.9752    -6.8513    -8.2398 H       
  54 H54            1.4165    -7.6757    -7.8539 H       
  55 H55           -1.6204    -6.9235   -10.7663 H       
  56 H56           -0.1767    -7.8541   -12.5254 H       
  57 H57            2.0651    -8.6950   -11.9690 H       
  58 H58            2.1126     7.7361    -2.6589 H       
  59 H59            1.5993     9.9024    -3.3708 H       
  60 H60            0.9234    12.3317    -3.1124 H       
  61 H61           -1.7282     9.1929    -4.2904 H       
  62 H62           -2.9112    13.2945    -4.7051 H       
  63 H63           -0.7480    14.0067    -3.7802 H       
  64 H64           -5.7289    10.6005    -6.9223 H       
  65 H65           -6.4232    10.5658    -5.2837 H       
  66 H66           -6.5712    12.0319    -6.2821 H       
  67 H67            5.9036    -8.9073    -9.6574 H       
  68 H68            5.2247   -10.5271    -9.3679 H       
  69 H69            5.8716   -10.1069   -10.9720 H       
@<TRIPOS>BOND
   1    1    2 1
   2    1   22 1
   3    1   23 2
   4    2    3 1
   5    2   44 1
   6    2   45 1
   7    3    4 1
   8    3   46 1
   9    3   47 1
  10    4    5 1
  11    5    6 1
  12    5   48 1
  13    5   49 1
  14    6    7 1
  15    6   50 1
  16    6   51 1
  17    7    8 1
  18    7   11 2
  19    8    9 1
  20    9   10 2
  21    9   12 1
  22   10   11 1
  23   12   13 am
  24   12   52 1
  25   13   14 2
  26   13   15 am
  27   15   16 1
  28   15   53 1
  29   16   17 ar
  30   16   18 ar
  31   17   21 ar
  32   17   54 1
  33   18   19 ar
  34   18   55 1
  35   19   20 ar
  36   19   56 1
  37   20   21 ar
  38   20   57 1
  39   21   40 1
  40   22   25 1
  41   23   24 1
  42   24   25 2
  43   25   26 1
  44   26   27 am
  45   26   58 1
  46   27   28 2
  47   27   29 am
  48   29   30 1
  49   29   59 1
  50   30   31 ar
  51   30   32 ar
  52   31   35 ar
  53   31   60 1
  54   32   33 ar
  55   32   61 1
  56   33   34 ar
  57   33   36 1
  58   34   35 ar
  59   34   62 1
  60   35   63 1
  61   36   37 2
  62   36   38 1
  63   38   39 1
  64   39   64 1
  65   39   65 1
  66   39   66 1
  67   40   41 2
  68   40   42 1
  69   42   43 1
  70   43   67 1
  71   43   68 1
  72   43   69 1

#	End of record

