#	Name: ASD02198422
#	Creating user name:	WinNT
#	Creation time:	15. 06. 2019 20:19

#	Modifying user name:	WinNT
#	Modification time:	15. 06. 2019 20:19

#	Program:	/corina/corina34_cracker 3.40 0067  02.08.2006

@<TRIPOS>MOLECULE
ASD02198422
  39   41    0    0    0
SMALL
NO_CHARGES


@<TRIPOS>ATOM
   1 C1             0.1689     1.8700     0.1940 C.ar    
   2 S2             0.0783     0.1165     0.0461 S.o2    
   3 N3             0.0238    -0.5027     1.5810 N.am    
   4 C4            -1.0183    -0.1515     2.4378 C.ar    
   5 C5            -0.7756     0.0139     3.8197 C.ar    
   6 C6            -1.8486     0.3715     4.6724 C.ar    
   7 C7            -3.1330     0.5558     4.1377 C.ar    
   8 C8            -3.3419     0.3878     2.7872 C.ar    
   9 C9            -2.2872     0.0413     1.9402 C.ar    
  10 N10            0.4471    -0.1627     4.3277 N.ar    
  11 C11            0.6822    -0.0119     5.6084 C.ar    
  12 C12           -0.3273     0.3389     6.5023 C.ar    
  13 C13           -1.6005     0.5350     6.0491 C.ar    
  14 O14           -1.1802    -0.1716    -0.5477 O.2     
  15 O15            1.3155    -0.3036    -0.5124 O.2     
  16 C16            1.3998     2.4945     0.2689 C.ar    
  17 C17           -0.9908     2.6215     0.2294 C.ar    
  18 C18           -0.9196     3.9971     0.3454 C.ar    
  19 C19            0.3111     4.6212     0.4265 C.ar    
  20 C20            1.4710     3.8702     0.3849 C.ar    
  21 C21            0.3887     6.1209     0.5524 C.3     
  22 O22           -4.5866     0.5668     2.2722 O.3     
  23 C23           -5.6223     0.9266     3.1886 C.3     
  24 H24            0.7171    -1.1098     1.8839 H       
  25 H25           -3.9548     0.8281     4.7833 H       
  26 H26           -2.4709    -0.0856     0.8835 H       
  27 H27            1.6846    -0.1640     5.9804 H       
  28 H28           -0.1031     0.4559     7.5523 H       
  29 H29           -2.3953     0.8072     6.7277 H       
  30 H30            2.3060     1.9077     0.2371 H       
  31 H31           -1.9523     2.1339     0.1660 H       
  32 H32           -1.8257     4.5843     0.3723 H       
  33 H33            2.4326     4.3577     0.4482 H       
  34 H34            0.3829     6.3978     1.6067 H       
  35 H35            1.3082     6.4775     0.0882 H       
  36 H36           -0.4689     6.5723     0.0535 H       
  37 H37           -5.7269     0.1468     3.9430 H       
  38 H38           -5.3675     1.8691     3.6731 H       
  39 H39           -6.5626     1.0382     2.6486 H       
@<TRIPOS>BOND
   1    1    2 1
   2    1   16 ar
   3    1   17 ar
   4    2    3 am
   5    2   14 2
   6    2   15 2
   7    3    4 1
   8    3   24 1
   9    4    5 ar
  10    4    9 ar
  11    5    6 ar
  12    5   10 ar
  13    6    7 ar
  14    6   13 ar
  15    7    8 ar
  16    7   25 1
  17    8    9 ar
  18    8   22 1
  19    9   26 1
  20   10   11 ar
  21   11   12 ar
  22   11   27 1
  23   12   13 ar
  24   12   28 1
  25   13   29 1
  26   16   20 ar
  27   16   30 1
  28   17   18 ar
  29   17   31 1
  30   18   19 ar
  31   18   32 1
  32   19   20 ar
  33   19   21 1
  34   20   33 1
  35   21   34 1
  36   21   35 1
  37   21   36 1
  38   22   23 1
  39   23   37 1
  40   23   38 1
  41   23   39 1

#	End of record

