#	Name: ASD04910439
#	Creating user name:	WinNT
#	Creation time:	15. 06. 2019 20:55

#	Modifying user name:	WinNT
#	Modification time:	15. 06. 2019 20:55

#	Program:	/corina/corina34_cracker 3.40 0067  02.08.2006

@<TRIPOS>MOLECULE
ASD04910439
  71   74    0    0    0
SMALL
NO_CHARGES


@<TRIPOS>ATOM
   1 C1            -0.1260     1.4248    -0.2783 C.ar    
   2 C2            -0.0619     0.0446    -0.2057 C.ar    
   3 C3             1.1542    -0.6047    -0.3231 C.ar    
   4 C4             2.3117     0.1213    -0.5135 C.ar    
   5 C5             2.2540     1.5139    -0.5881 C.ar    
   6 C6             1.0240     2.1627    -0.4689 C.ar    
   7 C7             3.4906     2.2984    -0.7915 C.2     
   8 N8             3.4315     3.6429    -0.8631 N.am    
   9 O9             4.5605     1.7307    -0.8942 O.2     
  10 C10            4.6568     4.4203    -1.0647 C.3     
  11 C11            4.3138     5.9107    -1.1088 C.3     
  12 C12           -1.3222    -0.7549     0.0026 C.3     
  13 C13           -1.7954    -1.3197    -1.3383 C.3     
  14 N14           -1.0536    -1.8573     0.9293 N.pl3   
  15 C15           -1.1482    -1.6497     2.3093 C.ar    
  16 C16           -1.0182    -2.7182     3.1942 C.ar    
  17 C17           -1.1185    -2.4655     4.5510 C.ar    
  18 C18           -1.3437    -1.1648     4.9830 C.ar    
  19 N19           -1.4622    -0.1739     4.1147 N.ar    
  20 C20           -1.3671    -0.3757     2.8152 C.ar    
  21 N21           -1.4471    -0.8994     6.3537 N.pl3   
  22 C22           -1.6667     0.3240     6.9330 C.2     
  23 C23           -1.6956     0.1254     8.2644 C.2     
  24 N24           -1.4998    -1.1809     8.4976 N.2     
  25 C25           -1.3546    -1.8062     7.3613 C.2     
  26 C26           -1.9105     1.1875     9.3117 C.3     
  27 C27           -3.0589    -2.1739    -1.1340 C.3     
  28 C28           -2.1902    -0.1688    -2.2867 C.3     
  29 C29           -3.4191    -0.7146    -3.0553 C.3     
  30 C30           -4.1773    -1.5123    -1.9655 C.3     
  31 C31            5.5742     6.7103    -1.3161 C.2     
  32 O32            5.5154     8.0494    -1.3875 O.3     
  33 O33            6.6377     6.1460    -1.4182 O.2     
  34 C34           -3.3868     1.5886     9.3359 C.3     
  35 C35           -1.5080     0.6406    10.6827 C.3     
  36 C36           -1.0548     2.4117     8.9797 C.3     
  37 H37           -1.0789     1.9254    -0.1900 H       
  38 H38            1.1974    -1.6823    -0.2652 H       
  39 H39            3.2604    -0.3867    -0.6043 H       
  40 H40            0.9726     3.2400    -0.5258 H       
  41 H41            2.5777     4.0959    -0.7812 H       
  42 H42            5.3469     4.2304    -0.2426 H       
  43 H43            5.1227     4.1267    -2.0054 H       
  44 H44            3.6237     6.1005    -1.9309 H       
  45 H45            3.8479     6.2042    -0.1681 H       
  46 H46           -2.0966    -0.1107     0.4191 H       
  47 H47           -1.0064    -1.9218    -1.7888 H       
  48 H48           -0.8101    -2.7312     0.5859 H       
  49 H49           -0.8437    -3.7198     2.8298 H       
  50 H50           -1.0231    -3.2699     5.2653 H       
  51 H51           -1.4689     0.4582     2.1364 H       
  52 H52           -1.7923     1.2660     6.4198 H       
  53 H53           -1.1836    -2.8659     7.2422 H       
  54 H54           -2.8833    -3.1904    -1.4863 H       
  55 H55           -3.3349    -2.1861    -0.0796 H       
  56 H56           -2.4607     0.7198    -1.7163 H       
  57 H57           -1.3762     0.0530    -2.9768 H       
  58 H58           -4.0330     0.1032    -3.4328 H       
  59 H59           -3.1065    -1.3711    -3.8674 H       
  60 H60           -4.8135    -2.2710    -2.4212 H       
  61 H61           -4.7688    -0.8407    -1.3432 H       
  62 H62            6.3501     8.5190    -1.5212 H       
  63 H63           -3.9964     0.7165     9.5724 H       
  64 H64           -3.5422     2.3568    10.0935 H       
  65 H65           -3.6735     1.9782     8.3592 H       
  66 H66           -0.4563     0.3548    10.6655 H       
  67 H67           -1.6634     1.4088    11.4403 H       
  68 H68           -2.1176    -0.2315    10.9192 H       
  69 H69           -1.3416     2.8013     8.0029 H       
  70 H70           -1.2102     3.1798     9.7372 H       
  71 H71           -0.0031     2.1259     8.9624 H       
@<TRIPOS>BOND
   1    1    2 ar
   2    1    6 ar
   3    1   37 1
   4    2    3 ar
   5    2   12 1
   6    3    4 ar
   7    3   38 1
   8    4    5 ar
   9    4   39 1
  10    5    6 ar
  11    5    7 1
  12    6   40 1
  13    7    8 am
  14    7    9 2
  15    8   10 1
  16    8   41 1
  17   10   11 1
  18   10   42 1
  19   10   43 1
  20   11   31 1
  21   11   44 1
  22   11   45 1
  23   12   13 1
  24   12   14 1
  25   12   46 1
  26   13   27 1
  27   13   28 1
  28   13   47 1
  29   14   15 1
  30   14   48 1
  31   15   16 ar
  32   15   20 ar
  33   16   17 ar
  34   16   49 1
  35   17   18 ar
  36   17   50 1
  37   18   19 ar
  38   18   21 1
  39   19   20 ar
  40   20   51 1
  41   21   22 1
  42   21   25 1
  43   22   23 2
  44   22   52 1
  45   23   24 1
  46   23   26 1
  47   24   25 2
  48   25   53 1
  49   26   34 1
  50   26   35 1
  51   26   36 1
  52   27   30 1
  53   27   54 1
  54   27   55 1
  55   28   29 1
  56   28   56 1
  57   28   57 1
  58   29   30 1
  59   29   58 1
  60   29   59 1
  61   30   60 1
  62   30   61 1
  63   31   32 1
  64   31   33 2
  65   32   62 1
  66   34   63 1
  67   34   64 1
  68   34   65 1
  69   35   66 1
  70   35   67 1
  71   35   68 1
  72   36   69 1
  73   36   70 1
  74   36   71 1

#	End of record

