#	Name: ASD01900455
#	Creating user name:	WinNT
#	Creation time:	15. 06. 2019 19:51

#	Modifying user name:	WinNT
#	Modification time:	15. 06. 2019 19:51

#	Program:	/corina/corina34_cracker 3.40 0067  02.08.2006

@<TRIPOS>MOLECULE
ASD01900455
  38   41    0    0    0
SMALL
NO_CHARGES


@<TRIPOS>ATOM
   1 C1            -0.0167     1.2213    -0.0281 C.2     
   2 O2             0.6337     1.0150     0.9787 O.2     
   3 C3             0.4780     0.7484    -1.3365 C.ar    
   4 C4             1.7328     0.1366    -1.4346 C.ar    
   5 C5             2.1877    -0.3036    -2.6637 C.ar    
   6 C6             1.4059    -0.1397    -3.7923 C.ar    
   7 C7             0.1638     0.4648    -3.7011 C.ar    
   8 C8            -0.3065     0.9040    -2.4817 C.ar    
   9 F9             2.4973    -0.0228    -0.3322 F       
  10 C10           -1.3011     1.9379     0.0585 C.ar    
  11 C11           -2.5073     1.2315    -0.0369 C.ar    
  12 C12           -3.7042     1.9081     0.0449 C.ar    
  13 C13           -3.7110     3.2895     0.2219 C.ar    
  14 C14           -2.5101     3.9892     0.3160 C.ar    
  15 C15           -1.3195     3.3248     0.2421 C.ar    
  16 Cl16          -2.4932    -0.4903    -0.2581 Cl      
  17 N17           -4.9190     3.9717     0.3044 N.pl3   
  18 C18           -7.4231     3.8613     0.7871 C.ar    
  19 C19           -8.2446     2.8435     1.3083 C.ar    
  20 C20           -9.6103     3.0842     1.4545 C.ar    
  21 C21          -10.1000     4.3195     1.0786 C.ar    
  22 C22           -9.2314     5.2773     0.5715 C.ar    
  23 N23           -7.9471     5.0345     0.4402 N.ar    
  24 N24           -6.1197     2.0915     1.2209 N.2     
  25 N25           -7.4356     1.7691     1.5687 N.pl3   
  26 C26           -6.0665     3.3099     0.7519 C.2     
  27 H27            3.1557    -0.7761    -2.7426 H       
  28 H28            1.7663    -0.4847    -4.7501 H       
  29 H29           -0.4405     0.5893    -4.5875 H       
  30 H30           -1.2777     1.3715    -2.4129 H       
  31 H31           -4.6365     1.3680    -0.0285 H       
  32 H32           -2.5208     5.0604     0.4529 H       
  33 H33           -0.3911     3.8710     0.3204 H       
  34 H34           -4.9660     4.9070     0.0516 H       
  35 H35          -10.2677     2.3245     1.8509 H       
  36 H36          -11.1526     4.5395     1.1780 H       
  37 H37           -9.6200     6.2415     0.2788 H       
  38 H38           -7.7284     0.9204     1.9358 H       
@<TRIPOS>BOND
   1    1    2 2
   2    1    3 1
   3    1   10 1
   4    3    4 ar
   5    3    8 ar
   6    4    5 ar
   7    4    9 1
   8    5    6 ar
   9    5   27 1
  10    6    7 ar
  11    6   28 1
  12    7    8 ar
  13    7   29 1
  14    8   30 1
  15   10   11 ar
  16   10   15 ar
  17   11   12 ar
  18   11   16 1
  19   12   13 ar
  20   12   31 1
  21   13   14 ar
  22   13   17 1
  23   14   15 ar
  24   14   32 1
  25   15   33 1
  26   17   26 1
  27   17   34 1
  28   18   19 ar
  29   18   23 ar
  30   18   26 1
  31   19   20 ar
  32   19   25 1
  33   20   21 ar
  34   20   35 1
  35   21   22 ar
  36   21   36 1
  37   22   23 ar
  38   22   37 1
  39   24   25 1
  40   24   26 2
  41   25   38 1

#	End of record

