#	Name: ASD02500857
#	Creating user name:	WinNT
#	Creation time:	15. 06. 2019 20:23

#	Modifying user name:	WinNT
#	Modification time:	15. 06. 2019 20:23

#	Program:	/corina/corina34_cracker 3.40 0067  02.08.2006

@<TRIPOS>MOLECULE
ASD02500857
  40   42    0    0    0
SMALL
NO_CHARGES


@<TRIPOS>ATOM
   1 C1             0.7106     1.5794    -0.2079 C.ar    
   2 C2             0.4761     0.2396     0.0049 C.ar    
   3 C3             1.9366     2.0022    -0.7084 C.ar    
   4 C4             2.9321     1.0759    -0.9971 C.ar    
   5 C5             2.7083    -0.2665    -0.7886 C.ar    
   6 C6             1.4754    -0.6979    -0.2838 C.ar    
   7 C7             1.2310    -2.1284    -0.0588 C.2     
   8 C8             2.2074    -2.9086     0.4705 C.2     
   9 C9             3.4921    -2.4853     1.0405 C.2     
  10 N10            4.2555    -3.4688     1.4869 N.am    
  11 C11            3.8247    -4.7320     1.3937 C.2     
  12 S12            2.2216    -4.6753     0.6402 S.3     
  13 S13            4.6593    -6.1346     1.9105 S.2     
  14 O14            3.8297    -1.3173     1.0975 O.2     
  15 C15            5.5635    -3.1771     2.0787 C.3     
  16 C16            5.4074    -2.9649     3.5625 C.2     
  17 O17            6.4813    -2.6828     4.3168 O.3     
  18 O18            4.3156    -3.0487     4.0733 O.2     
  19 O19            2.1626     3.3249    -0.9164 O.3     
  20 C20            2.2085     4.1165     0.1732 C.2     
  21 C21            2.3334     5.5787     0.0182 C.ar    
  22 C22            2.4043     6.1456    -1.2565 C.ar    
  23 C23            2.5204     7.5123    -1.3948 C.ar    
  24 C24            2.5669     8.3242    -0.2731 C.ar    
  25 C25            2.4972     7.7700     0.9939 C.ar    
  26 C26            2.3754     6.4035     1.1466 C.ar    
  27 O27            2.1470     3.6264     1.2832 O.2     
  28 Cl28           2.2881     5.7097     2.7355 Cl      
  29 Cl29           2.7138    10.0442    -0.4570 Cl      
  30 H30           -0.0609     2.3030     0.0101 H       
  31 H31           -0.4767    -0.0877     0.3941 H       
  32 H32            3.8826     1.4098    -1.3861 H       
  33 H33            3.4821    -0.9854    -1.0139 H       
  34 H34            0.2744    -2.5596    -0.3145 H       
  35 H35            6.2378    -4.0147     1.9005 H       
  36 H36            5.9752    -2.2760     1.6242 H       
  37 H37            6.3315    -2.5550     5.2635 H       
  38 H38            2.3686     5.5143    -2.1321 H       
  39 H39            2.5757     7.9512    -2.3800 H       
  40 H40            2.5343     8.4084     1.8643 H       
@<TRIPOS>BOND
   1    1    2 ar
   2    1    3 ar
   3    1   30 1
   4    2    6 ar
   5    2   31 1
   6    3    4 ar
   7    3   19 1
   8    4    5 ar
   9    4   32 1
  10    5    6 ar
  11    5   33 1
  12    6    7 1
  13    7    8 2
  14    7   34 1
  15    8    9 1
  16    8   12 1
  17    9   10 am
  18    9   14 2
  19   10   11 am
  20   10   15 1
  21   11   12 1
  22   11   13 2
  23   15   16 1
  24   15   35 1
  25   15   36 1
  26   16   17 1
  27   16   18 2
  28   17   37 1
  29   19   20 1
  30   20   21 1
  31   20   27 2
  32   21   22 ar
  33   21   26 ar
  34   22   23 ar
  35   22   38 1
  36   23   24 ar
  37   23   39 1
  38   24   25 ar
  39   24   29 1
  40   25   26 ar
  41   25   40 1
  42   26   28 1

#	End of record

