#	Name: ASD01911677
#	Creating user name:	WinNT
#	Creation time:	15. 06. 2019 19:58

#	Modifying user name:	WinNT
#	Modification time:	15. 06. 2019 19:58

#	Program:	/corina/corina34_cracker 3.40 0067  02.08.2006

@<TRIPOS>MOLECULE
ASD01911677
  38   40    0    0    0
SMALL
NO_CHARGES


@<TRIPOS>ATOM
   1 N1            -0.0159     1.3435     0.0123 N.am    
   2 C2             0.0021    -0.0041     0.0020 C.2     
   3 C3             1.2747    -0.7187    -0.1251 C.2     
   4 C4             1.4470    -2.0747    -0.0506 C.2     
   5 S5             2.8517     0.0159    -0.4085 S.3     
   6 C6             3.5962    -1.5802    -0.3925 C.2     
   7 N7             2.6739    -2.4890    -0.1939 N.2     
   8 C8             4.9921    -1.8438    -0.5733 C.1     
   9 C9             6.1364    -2.0599    -0.7215 C.1     
  10 C10            7.5323    -2.3234    -0.9023 C.ar    
  11 C11            8.0093    -3.6374    -0.8695 C.ar    
  12 C12            9.3548    -3.8832    -1.0449 C.ar    
  13 C13           10.2324    -2.8333    -1.2524 C.ar    
  14 C14            9.7679    -1.5301    -1.2862 C.ar    
  15 C15            8.4244    -1.2686    -1.1182 C.ar    
  16 O16           -1.0389    -0.6274     0.0983 O.2     
  17 C17            1.1671     2.2164    -0.0006 C.3     
  18 C18           -1.2252     2.1865     0.0320 C.3     
  19 C19           -0.7759     3.5387    -0.5759 C.3     
  20 C20            0.6608     3.6742    -0.0097 C.3     
  21 O21            0.6338     4.2092     1.3151 O.3     
  22 C22            1.5249     4.5411    -0.9277 C.3     
  23 H23            0.6236    -2.7534     0.1157 H       
  24 H24            7.3258    -4.4576    -0.7069 H       
  25 H25            9.7247    -4.8975    -1.0199 H       
  26 H26           11.2852    -3.0321    -1.3885 H       
  27 H27           10.4588    -0.7160    -1.4482 H       
  28 H28            8.0633    -0.2511    -1.1447 H       
  29 H29            1.7688     2.0385     0.8906 H       
  30 H30            1.7598     2.0242    -0.8950 H       
  31 H31           -2.0099     1.7386    -0.5776 H       
  32 H32           -1.5727     2.3275     1.0555 H       
  33 H33           -0.7618     3.4921    -1.6648 H       
  34 H34           -1.4119     4.3533    -0.2295 H       
  35 H35            1.5080     4.3139     1.7149 H       
  36 H36            1.0839     5.5345    -1.0103 H       
  37 H37            2.5289     4.6227    -0.5111 H       
  38 H38            1.5775     4.0836    -1.9156 H       
@<TRIPOS>BOND
   1    1    2 am
   2    1   18 1
   3    1   17 1
   4    2    3 1
   5    2   16 2
   6    3    4 2
   7    3    5 1
   8    4    7 1
   9    4   23 1
  10    5    6 1
  11    6    7 2
  12    6    8 1
  13    8    9 3
  14    9   10 1
  15   10   11 ar
  16   10   15 ar
  17   11   12 ar
  18   11   24 1
  19   12   13 ar
  20   12   25 1
  21   13   14 ar
  22   13   26 1
  23   14   15 ar
  24   14   27 1
  25   15   28 1
  26   17   20 1
  27   17   29 1
  28   17   30 1
  29   18   19 1
  30   18   31 1
  31   18   32 1
  32   19   20 1
  33   19   33 1
  34   19   34 1
  35   20   21 1
  36   20   22 1
  37   21   35 1
  38   22   36 1
  39   22   37 1
  40   22   38 1

#	End of record

