#	Name: ASD01914848
#	Creating user name:	WinNT
#	Creation time:	15. 06. 2019 20:04

#	Modifying user name:	WinNT
#	Modification time:	15. 06. 2019 20:04

#	Program:	/corina/corina34_cracker 3.40 0067  02.08.2006

@<TRIPOS>MOLECULE
ASD01914848
  45   47    0    0    0
SMALL
NO_CHARGES


@<TRIPOS>ATOM
   1 C1             0.6097     1.2698    -0.9510 C.ar    
   2 C2             0.6038    -0.0887    -0.6163 C.ar    
   3 C3             1.6379    -0.9094    -1.0996 C.ar    
   4 N4             2.5970    -0.4006    -1.8565 N.ar    
   5 C5             2.6202     0.8773    -2.1830 C.ar    
   6 C6             1.6376     1.7467    -1.7461 C.ar    
   7 N7             1.6533    -2.2564    -0.7818 N.3     
   8 C8             0.4007    -2.9069    -1.1865 C.3     
   9 C9             2.8035    -2.9321    -1.4042 C.3     
  10 C10            2.9554    -4.3174    -0.7709 C.3     
  11 C11            1.6276    -5.0224    -0.7697 C.2     
  12 C12            0.4852    -4.3879    -0.9528 C.2     
  13 C13            1.6008    -6.4772    -0.5559 C.2     
  14 N14            0.4427    -7.1553    -0.6799 N.am    
  15 O15            2.6238    -7.0684    -0.2673 O.2     
  16 C16            0.4455    -8.5537    -0.6583 C.ar    
  17 C17           -0.5901    -9.2609    -1.2555 C.ar    
  18 C18           -0.5847   -10.6417    -1.2325 C.ar    
  19 C19            0.4506   -11.3205    -0.6151 C.ar    
  20 C20            1.4832   -10.6189    -0.0191 C.ar    
  21 C21            1.4866    -9.2381    -0.0446 C.ar    
  22 I22            0.4543   -13.4153    -0.5821 I       
  23 C23            3.9662    -5.1370    -1.5756 C.3     
  24 C24            5.3680    -4.5580    -1.3741 C.3     
  25 C25           -0.4362    -0.6331     0.2039 C.1     
  26 N26           -1.2613    -1.0649     0.8545 N.1     
  27 H27           -0.1708     1.9293    -0.6014 H       
  28 H28            3.4215     1.2514    -2.8030 H       
  29 H29            1.6721     2.7900    -2.0230 H       
  30 H30           -0.4240    -2.4960    -0.6041 H       
  31 H31            0.2214    -2.7180    -2.2449 H       
  32 H32            2.6311    -3.0363    -2.4754 H       
  33 H33            3.7082    -2.3493    -1.2311 H       
  34 H34            3.3102    -4.2106     0.2542 H       
  35 H35           -0.4308    -4.9597    -0.9334 H       
  36 H36           -0.3927    -6.6735    -0.7840 H       
  37 H37           -1.3990    -8.7314    -1.7370 H       
  38 H38           -1.3897   -11.1921    -1.6967 H       
  39 H39            2.2897   -11.1516     0.4628 H       
  40 H40            2.2931    -8.6909     0.4209 H       
  41 H41            3.9482    -6.1721    -1.2347 H       
  42 H42            3.7056    -5.0981    -2.6333 H       
  43 H43            6.0796    -5.1056    -1.9921 H       
  44 H44            5.3715    -3.5064    -1.6610 H       
  45 H45            5.6517    -4.6495    -0.3256 H       
@<TRIPOS>BOND
   1    1    2 ar
   2    1    6 ar
   3    1   27 1
   4    2    3 ar
   5    2   25 1
   6    3    4 ar
   7    3    7 1
   8    4    5 ar
   9    5    6 ar
  10    5   28 1
  11    6   29 1
  12    7    8 1
  13    7    9 1
  14    8   12 1
  15    8   30 1
  16    8   31 1
  17    9   10 1
  18    9   32 1
  19    9   33 1
  20   10   11 1
  21   10   23 1
  22   10   34 1
  23   11   12 2
  24   11   13 1
  25   12   35 1
  26   13   14 am
  27   13   15 2
  28   14   16 1
  29   14   36 1
  30   16   17 ar
  31   16   21 ar
  32   17   18 ar
  33   17   37 1
  34   18   19 ar
  35   18   38 1
  36   19   20 ar
  37   19   22 1
  38   20   21 ar
  39   20   39 1
  40   21   40 1
  41   23   24 1
  42   23   41 1
  43   23   42 1
  44   24   43 1
  45   24   44 1
  46   24   45 1
  47   25   26 3

#	End of record

