#	Name: ASD01200269
#	Creating user name:	WinNT
#	Creation time:	15. 06. 2019 19:08

#	Modifying user name:	WinNT
#	Modification time:	15. 06. 2019 19:08

#	Program:	/corina/corina34_cracker 3.40 0067  02.08.2006

@<TRIPOS>MOLECULE
ASD01200269
  50   52    0    0    0
SMALL
NO_CHARGES


@<TRIPOS>ATOM
   1 C1             0.6407     1.2142     1.1236 C.2     
   2 C2             0.8854    -0.0083     1.6326 C.2     
   3 N3             2.2144    -0.1862     1.6642 N.2     
   4 C4             2.8026     0.8796     1.1941 C.2     
   5 N5             1.8566     1.7779     0.8452 N.pl3   
   6 C6            -0.1522    -1.0023     2.0870 C.3     
   7 F7            -0.5131    -1.8235     1.0134 F       
   8 F8             0.3744    -1.7875     3.1182 F       
   9 F9            -1.2810    -0.3187     2.5514 F       
  10 C10            2.0883     3.1072     0.2746 C.3     
  11 C11            2.8316     2.9715    -1.0293 C.2     
  12 C12            2.9185     3.9434     1.2504 C.3     
  13 C13            2.1376     4.1325     2.5525 C.3     
  14 C14            3.0229     4.8271     3.6020 C.3     
  15 C15            2.3203     6.1519     3.9639 C.3     
  16 C16            0.8334     5.9026     3.6092 C.3     
  17 C17            0.9279     5.0594     2.3133 C.3     
  18 N18            3.0348     4.0548    -1.8050 N.am    
  19 O19            3.2470     1.8876    -1.3805 O.2     
  20 C20            3.7493     3.9351    -2.9961 C.ar    
  21 C21            3.8865     2.6880    -3.5944 C.ar    
  22 C22            4.5983     2.5832    -4.7767 C.ar    
  23 C23            5.1503     3.7343    -5.3214 C.ar    
  24 C24            4.9744     4.9409    -4.6728 C.ar    
  25 N25            4.2862     5.0110    -3.5497 N.ar    
  26 C26            5.9339     3.6681    -6.6070 C.3     
  27 C27            4.9877     3.8717    -7.7920 C.3     
  28 H28           -0.3287     1.6619     0.9617 H       
  29 H29            3.8693     1.0202     1.1000 H       
  30 H30            1.1315     3.5986     0.0979 H       
  31 H31            3.8571     3.4307     1.4609 H       
  32 H32            3.1278     4.9172     0.8076 H       
  33 H33            1.8003     3.1667     2.9288 H       
  34 H34            3.1146     4.1989     4.4880 H       
  35 H35            4.0089     5.0295     3.1837 H       
  36 H36            2.4285     6.3628     5.0278 H       
  37 H37            2.7222     6.9719     3.3687 H       
  38 H38            0.3365     5.3408     4.4001 H       
  39 H39            0.3181     6.8443     3.4205 H       
  40 H40            1.1049     5.7029     1.4515 H       
  41 H41            0.0199     4.4730     2.1726 H       
  42 H42            2.6839     4.9177    -1.5345 H       
  43 H43            3.4439     1.8125    -3.1426 H       
  44 H44            4.7218     1.6274    -5.2641 H       
  45 H45            5.4021     5.8393    -5.0929 H       
  46 H46            6.6935     4.4498    -6.6102 H       
  47 H47            6.4150     2.6935    -6.6895 H       
  48 H48            4.2280     3.0900    -7.7889 H       
  49 H49            4.5065     4.8463    -7.7095 H       
  50 H50            5.5544     3.8238    -8.7219 H       
@<TRIPOS>BOND
   1    1    2 2
   2    1    5 1
   3    1   28 1
   4    2    3 1
   5    2    6 1
   6    3    4 2
   7    4    5 1
   8    4   29 1
   9    5   10 1
  10    6    7 1
  11    6    8 1
  12    6    9 1
  13   10   11 1
  14   10   12 1
  15   10   30 1
  16   11   18 am
  17   11   19 2
  18   12   13 1
  19   12   31 1
  20   12   32 1
  21   13   14 1
  22   13   17 1
  23   13   33 1
  24   14   15 1
  25   14   34 1
  26   14   35 1
  27   15   16 1
  28   15   36 1
  29   15   37 1
  30   16   17 1
  31   16   38 1
  32   16   39 1
  33   17   40 1
  34   17   41 1
  35   18   20 1
  36   18   42 1
  37   20   21 ar
  38   20   25 ar
  39   21   22 ar
  40   21   43 1
  41   22   23 ar
  42   22   44 1
  43   23   24 ar
  44   23   26 1
  45   24   25 ar
  46   24   45 1
  47   26   27 1
  48   26   46 1
  49   26   47 1
  50   27   48 1
  51   27   49 1
  52   27   50 1

#	End of record

