#	Name: ASD02508075
#	Creating user name:	WinNT
#	Creation time:	15. 06. 2019 20:23

#	Modifying user name:	WinNT
#	Modification time:	15. 06. 2019 20:23

#	Program:	/corina/corina34_cracker 3.40 0067  02.08.2006

@<TRIPOS>MOLECULE
ASD02508075
  36   38    0    0    0
SMALL
NO_CHARGES


@<TRIPOS>ATOM
   1 C1            -0.0119     1.3907    -0.0067 C.ar    
   2 C2             0.0073     0.0097     0.1100 C.ar    
   3 C3             1.1821     2.0999    -0.1340 C.ar    
   4 C4             2.3894     1.4196    -0.1433 C.ar    
   5 C5             2.4043     0.0375    -0.0259 C.ar    
   6 C6             1.2116    -0.6655     0.1002 C.ar    
   7 N7            -1.0411     2.3352    -0.0353 N.am    
   8 C8            -0.4718     3.5495    -0.1684 C.2     
   9 O9             0.8622     3.4138    -0.2289 O.3     
  10 N10            3.6223    -0.6505    -0.0351 N.am    
  11 S11            4.9592     0.0231     0.6729 S.o2    
  12 C12            4.5803     0.2669     2.3763 C.ar    
  13 C13            4.8505    -0.7309     3.2940 C.ar    
  14 O14           -1.0737     4.6044    -0.2286 O.2     
  15 O15            5.9790    -0.9653     0.6261 O.2     
  16 C16            1.2332    -2.1670     0.2274 C.3     
  17 C17            4.0183     1.4581     2.7955 C.ar    
  18 C18            3.7215     1.6504     4.1322 C.ar    
  19 C19            3.9867     0.6518     5.0498 C.ar    
  20 C20            4.5534    -0.5392     4.6314 C.ar    
  21 O21            5.1047     1.3175     0.1049 O.2     
  22 C22           -2.4761     2.0566     0.0612 C.3     
  23 Cl23           4.8863    -1.7945     5.7834 Cl      
  24 H24           -0.9186    -0.5375     0.2089 H       
  25 H25            3.3167     1.9643    -0.2420 H       
  26 H26            3.6838    -1.5222    -0.4562 H       
  27 H27            5.2931    -1.6602     2.9669 H       
  28 H28            1.2951    -2.4416     1.2804 H       
  29 H29            0.3216    -2.5813    -0.2032 H       
  30 H30            2.0987    -2.5641    -0.3030 H       
  31 H31            3.8111     2.2389     2.0788 H       
  32 H32            3.2827     2.5815     4.4592 H       
  33 H33            3.7556     0.8024     6.0940 H       
  34 H34           -2.7803     2.0749     1.1077 H       
  35 H35           -3.0313     2.8142    -0.4918 H       
  36 H36           -2.6845     1.0733    -0.3606 H       
@<TRIPOS>BOND
   1    1    2 ar
   2    1    3 ar
   3    1    7 1
   4    2    6 ar
   5    2   24 1
   6    3    4 ar
   7    3    9 1
   8    4    5 ar
   9    4   25 1
  10    5    6 ar
  11    5   10 1
  12    6   16 1
  13    7    8 am
  14    7   22 1
  15    8    9 1
  16    8   14 2
  17   10   11 am
  18   10   26 1
  19   11   12 1
  20   11   15 2
  21   11   21 2
  22   12   13 ar
  23   12   17 ar
  24   13   20 ar
  25   13   27 1
  26   16   28 1
  27   16   29 1
  28   16   30 1
  29   17   18 ar
  30   17   31 1
  31   18   19 ar
  32   18   32 1
  33   19   20 ar
  34   19   33 1
  35   20   23 1
  36   22   34 1
  37   22   35 1
  38   22   36 1

#	End of record

