#	Name: ASD01150413
#	Creating user name:	WinNT
#	Creation time:	15. 06. 2019 19:04

#	Modifying user name:	WinNT
#	Modification time:	15. 06. 2019 19:04

#	Program:	/corina/corina34_cracker 3.40 0067  02.08.2006

@<TRIPOS>MOLECULE
ASD01150413
  44   46    0    0    0
SMALL
NO_CHARGES


@<TRIPOS>ATOM
   1 C1             2.0743     1.1972     0.9499 C.ar    
   2 C2             2.0528    -0.1578     0.6824 C.ar    
   3 C3             1.2096    -0.6598    -0.2905 C.ar    
   4 C4             0.3805     0.1973    -1.0029 C.ar    
   5 C5             0.3992     1.5589    -0.7364 C.ar    
   6 C6             1.2470     2.0600     0.2411 C.ar    
   7 N7             1.2689     3.4328     0.5129 N.am    
   8 C8             0.1110     4.0908     0.6999 C.2     
   9 N9             0.0984     5.4109     0.9634 N.am    
  10 C10            1.2587     6.0947     1.0430 C.2     
  11 C11            2.5231     5.3823     0.8401 C.2     
  12 N12            2.4961     4.1017     0.5923 N.2     
  13 O13            1.2553     7.2886     1.2801 O.2     
  14 C14           -1.1759     6.1055     1.1633 C.3     
  15 O15           -0.9405     3.4843     0.6295 O.2     
  16 C16           -1.5455     6.0665     2.6237 C.ar    
  17 C17           -1.4062     7.1998     3.4020 C.ar    
  18 C18           -1.7444     7.1654     4.7418 C.ar    
  19 C19           -2.2233     5.9950     5.3055 C.ar    
  20 C20           -2.3638     4.8591     4.5267 C.ar    
  21 C21           -2.0302     4.8964     3.1841 C.ar    
  22 N22           -0.4723    -0.3119    -1.9885 N.am    
  23 C23           -1.0488    -1.5188    -1.8229 C.2     
  24 O24           -0.7627    -2.2008    -0.8616 O.2     
  25 C25           -2.0489    -2.0211    -2.8322 C.3     
  26 C26            3.8361     6.1173     0.9220 C.3     
  27 F27           -2.5530     5.9614     6.6153 F       
  28 F28           -2.1672     3.7887     2.4228 F       
  29 H29            2.7314     1.5860     1.7137 H       
  30 H30            2.6967    -0.8262     1.2346 H       
  31 H31            1.1954    -1.7197    -0.4974 H       
  32 H32           -0.2442     2.2274    -1.2892 H       
  33 H33           -1.0792     7.1421     0.8405 H       
  34 H34           -1.9533     5.6139     0.5785 H       
  35 H35           -1.0323     8.1131     2.9631 H       
  36 H36           -1.6348     8.0517     5.3492 H       
  37 H37           -2.7373     3.9458     4.9656 H       
  38 H38           -0.6487     0.2039    -2.7909 H       
  39 H39           -1.5297    -2.5788    -3.6116 H       
  40 H40           -2.7687    -2.6729    -2.3371 H       
  41 H41           -2.5716    -1.1748    -3.2779 H       
  42 H42            4.2017     6.0947     1.9486 H       
  43 H43            4.5629     5.6371     0.2668 H       
  44 H44            3.6935     7.1519     0.6098 H       
@<TRIPOS>BOND
   1    1    2 ar
   2    1    6 ar
   3    1   29 1
   4    2    3 ar
   5    2   30 1
   6    3    4 ar
   7    3   31 1
   8    4    5 ar
   9    4   22 1
  10    5    6 ar
  11    5   32 1
  12    6    7 1
  13    7    8 am
  14    7   12 1
  15    8    9 am
  16    8   15 2
  17    9   10 am
  18    9   14 1
  19   10   11 1
  20   10   13 2
  21   11   12 2
  22   11   26 1
  23   14   16 1
  24   14   33 1
  25   14   34 1
  26   16   17 ar
  27   16   21 ar
  28   17   18 ar
  29   17   35 1
  30   18   19 ar
  31   18   36 1
  32   19   20 ar
  33   19   27 1
  34   20   21 ar
  35   20   37 1
  36   21   28 1
  37   22   23 am
  38   22   38 1
  39   23   24 2
  40   23   25 1
  41   25   39 1
  42   25   40 1
  43   25   41 1
  44   26   42 1
  45   26   43 1
  46   26   44 1

#	End of record

