#	Name: ASD01816572
#	Creating user name:	WinNT
#	Creation time:	15. 06. 2019 19:35

#	Modifying user name:	WinNT
#	Modification time:	15. 06. 2019 19:35

#	Program:	/corina/corina34_cracker 3.40 0067  02.08.2006

@<TRIPOS>MOLECULE
ASD01816572
  61   66    0    0    0
SMALL
NO_CHARGES


@<TRIPOS>ATOM
   1 C1            -0.5537     0.6400     0.2978 C.ar    
   2 C2            -0.2896    -0.7198     0.2705 C.ar    
   3 C3             1.0062    -1.1824     0.1709 C.ar    
   4 C4             2.0634    -0.2824     0.0971 C.ar    
   5 C5             1.7922     1.0958     0.1249 C.ar    
   6 C6             0.4812     1.5499     0.2252 C.ar    
   7 N7             3.3660    -0.7400    -0.0020 N.pl3   
   8 C8             4.4258     0.0811    -0.0765 C.2     
   9 C9             4.2840     1.4464    -0.0584 C.2     
  10 C10            2.9286     2.0334     0.0454 C.2     
  11 C11            5.1900     2.5891    -0.1196 C.2     
  12 N12            4.4112     3.6906    -0.0559 N.am    
  13 N13            3.0654     3.3282     0.0421 N.2     
  14 C14            4.8851     5.0084    -0.0837 C.ar    
  15 O15            6.4065     2.5559    -0.2097 O.2     
  16 C16            3.5989    -2.1862    -0.0264 C.3     
  17 C17            3.5734    -2.6752    -1.4516 C.ar    
  18 C18            4.7425    -2.7070    -2.1900 C.ar    
  19 C19            4.7257    -3.1539    -3.4959 C.ar    
  20 C20            3.5280    -3.5735    -4.0708 C.ar    
  21 C21            2.3517    -3.5395    -3.3219 C.ar    
  22 C22            2.3818    -3.0957    -2.0143 C.ar    
  23 C23            5.1164     5.6914     1.1060 C.ar    
  24 C24            3.5038    -4.0543    -5.4739 C.ar    
  25 C25            2.8904    -5.2666    -5.7860 C.ar    
  26 C26            5.1304     5.6340    -1.2982 C.ar    
  27 C27            5.5978     6.9341    -1.3225 C.ar    
  28 C28            5.8220     7.6128    -0.1391 C.ar    
  29 C29            5.5841     6.9922     1.0738 C.ar    
  30 F30            4.8840     5.0850     2.2906 F       
  31 Cl31           0.8545    -4.0604    -4.0295 Cl      
  32 C32            2.8687    -5.7111    -7.0908 C.ar    
  33 C33            3.4577    -4.9517    -8.0947 C.ar    
  34 C34            4.0697    -3.7428    -7.7859 C.ar    
  35 C35            4.0893    -3.2917    -6.4833 C.ar    
  36 N36            3.4348    -5.4049    -9.4174 N.am    
  37 C37            2.3607    -6.0732    -9.8823 C.2     
  38 O38            1.4506    -6.3555    -9.1319 O.2     
  39 C39            2.2904    -6.4696   -11.3345 C.3     
  40 H40           -1.5731     0.9891     0.3715 H       
  41 H41           -1.1060    -1.4244     0.3282 H       
  42 H42            1.1997    -2.2447     0.1507 H       
  43 H43            0.2743     2.6096     0.2465 H       
  44 H44            5.4158    -0.3438    -0.1522 H       
  45 H45            4.5710    -2.4051     0.4155 H       
  46 H46            2.8187    -2.6895     0.5445 H       
  47 H47            5.6705    -2.3812    -1.7438 H       
  48 H48            5.6394    -3.1777    -4.0712 H       
  49 H49            1.4720    -3.0690    -1.4330 H       
  50 H50            2.4329    -5.8573    -5.0061 H       
  51 H51            4.9564     5.1049    -2.2235 H       
  52 H52            5.7886     7.4207    -2.2676 H       
  53 H53            6.1877     8.6288    -0.1618 H       
  54 H54            5.7603     7.5252     1.9965 H       
  55 H55            2.3939    -6.6505    -7.3330 H       
  56 H56            4.5268    -3.1542    -8.5677 H       
  57 H57            4.5650    -2.3521    -6.2438 H       
  58 H58            4.1920    -5.2382   -10.0003 H       
  59 H59            3.1916    -6.1329   -11.8471 H       
  60 H60            2.2123    -7.5541   -11.4117 H       
  61 H61            1.4167    -6.0087   -11.7951 H       
@<TRIPOS>BOND
   1    1    2 ar
   2    1    6 ar
   3    1   40 1
   4    2    3 ar
   5    2   41 1
   6    3    4 ar
   7    3   42 1
   8    4    5 ar
   9    4    7 1
  10    5    6 ar
  11    5   10 1
  12    6   43 1
  13    7    8 1
  14    7   16 1
  15    8    9 2
  16    8   44 1
  17    9   10 1
  18    9   11 1
  19   10   13 2
  20   11   12 am
  21   11   15 2
  22   12   13 1
  23   12   14 1
  24   14   26 ar
  25   14   23 ar
  26   16   17 1
  27   16   45 1
  28   16   46 1
  29   17   18 ar
  30   17   22 ar
  31   18   19 ar
  32   18   47 1
  33   19   20 ar
  34   19   48 1
  35   20   21 ar
  36   20   24 1
  37   21   22 ar
  38   21   31 1
  39   22   49 1
  40   23   30 1
  41   23   29 ar
  42   24   25 ar
  43   24   35 ar
  44   25   32 ar
  45   25   50 1
  46   26   27 ar
  47   26   51 1
  48   27   28 ar
  49   27   52 1
  50   28   29 ar
  51   28   53 1
  52   29   54 1
  53   32   33 ar
  54   32   55 1
  55   33   34 ar
  56   33   36 1
  57   34   35 ar
  58   34   56 1
  59   35   57 1
  60   36   37 am
  61   36   58 1
  62   37   38 2
  63   37   39 1
  64   39   59 1
  65   39   60 1
  66   39   61 1

#	End of record

