#	Name: ASD03330201
#	Creating user name:	WinNT
#	Creation time:	15. 06. 2019 20:36

#	Modifying user name:	WinNT
#	Modification time:	15. 06. 2019 20:36

#	Program:	/corina/corina34_cracker 3.40 0067  02.08.2006

@<TRIPOS>MOLECULE
ASD03330201
  71   75    0    0    0
SMALL
NO_CHARGES


@<TRIPOS>ATOM
   1 C1            -1.2064     1.5920    -0.3356 C.2     
   2 C2            -1.1684     0.3772     0.2806 C.2     
   3 C3            -0.1685     2.4385    -0.0053 C.2     
   4 C4             0.7300     1.9093     0.8926 C.2     
   5 S5             0.2373     0.2797     1.3313 S.3     
   6 C6             1.9255     2.6036     1.4083 C.ar    
   7 C7             2.8121     3.2247     0.5251 C.ar    
   8 C8             3.9272     3.8722     1.0140 C.ar    
   9 C9             4.1698     3.9081     2.3762 C.ar    
  10 C10            3.2971     3.2957     3.2575 C.ar    
  11 C11            2.1735     2.6481     2.7832 C.ar    
  12 C12           -0.0326     3.8027    -0.5699 C.ar    
  13 C13           -0.0105     3.9880    -1.9516 C.ar    
  14 C14            0.0677     4.9036     0.2798 C.ar    
  15 C15            0.1936     6.1713    -0.2487 C.ar    
  16 C16            0.2205     6.3518    -1.6248 C.ar    
  17 C17            0.1156     5.2584    -2.4735 C.ar    
  18 C18           -2.1548    -0.6907     0.0951 C.2     
  19 O19           -3.3412    -0.4224     0.0516 O.2     
  20 N20           -1.7481    -1.9698    -0.0274 N.am    
  21 Cl21           1.0788     1.8805     3.8905 Cl      
  22 O22            0.3442     7.6024    -2.1423 O.3     
  23 C23           -2.7147    -3.0383    -0.3152 C.3     
  24 C24           -2.2399    -3.8137    -1.5481 C.3     
  25 C25           -0.8094    -4.3058    -1.3166 C.3     
  26 C26            0.1183    -3.1056    -1.1141 C.3     
  27 C27           -0.3290    -2.3213     0.1182 C.3     
  28 C28           -0.7720    -5.1817    -0.0909 C.2     
  29 O29            0.0315    -4.9584     0.7898 O.2     
  30 N30           -1.6314    -6.2133     0.0267 N.am    
  31 C31           -0.3511    -5.0982    -2.5138 C.ar    
  32 C32            0.9432    -5.5805    -2.5691 C.ar    
  33 C33            1.3636    -6.3073    -3.6673 C.ar    
  34 C34            0.4895    -6.5522    -4.7098 C.ar    
  35 C35           -0.8051    -6.0707    -4.6541 C.ar    
  36 C36           -1.2267    -5.3476    -3.5539 C.ar    
  37 N37            0.6515    10.5193    -6.0386 N.am    
  38 C38            0.5311     9.3076    -5.4609 C.2     
  39 O39            0.4404     8.3136    -6.1499 O.2     
  40 C40            0.5091     9.1879    -3.9588 C.3     
  41 C41            0.3651     7.7160    -3.5666 C.3     
  42 H42           -1.9850     1.8684    -1.0311 H       
  43 H43            2.6248     3.1975    -0.5382 H       
  44 H44            4.6133     4.3523     0.3320 H       
  45 H45            5.0451     4.4165     2.7529 H       
  46 H46            3.4927     3.3278     4.3192 H       
  47 H47           -0.0917     3.1376    -2.6125 H       
  48 H48            0.0465     4.7639     1.3505 H       
  49 H49            0.2710     7.0246     0.4089 H       
  50 H50            0.1369     5.4022    -3.5437 H       
  51 H51           -2.7786    -3.7129     0.5385 H       
  52 H52           -3.6938    -2.6018    -0.5128 H       
  53 H53           -2.8959    -4.6680    -1.7155 H       
  54 H54           -2.2632    -3.1602    -2.4202 H       
  55 H55            1.1407    -3.4559    -0.9725 H       
  56 H56            0.0728    -2.4587    -1.9902 H       
  57 H57            0.2663    -1.4128     0.2090 H       
  58 H58           -0.1999    -2.9359     1.0091 H       
  59 H59           -2.2230    -6.4379    -0.7084 H       
  60 H60           -1.6583    -6.7311     0.8465 H       
  61 H61            1.6261    -5.3892    -1.7546 H       
  62 H62            2.3750    -6.6835    -3.7108 H       
  63 H63            0.8182    -7.1194    -5.5681 H       
  64 H64           -1.4878    -6.2617    -5.4687 H       
  65 H65           -2.2382    -4.9714    -3.5104 H       
  66 H66            0.6656    10.5964    -7.0054 H       
  67 H67            0.7240    11.3143    -5.4876 H       
  68 H68            1.4384     9.5838    -3.5491 H       
  69 H69           -0.3334     9.7539    -3.5615 H       
  70 H70            1.2076     7.1500    -3.9640 H       
  71 H71           -0.5642     7.3201    -3.9763 H       
@<TRIPOS>BOND
   1    1    2 2
   2    1    3 1
   3    1   42 1
   4    2   18 1
   5    2    5 1
   6    3    4 2
   7    3   12 1
   8    4    5 1
   9    4    6 1
  10    6    7 ar
  11    6   11 ar
  12    7    8 ar
  13    7   43 1
  14    8    9 ar
  15    8   44 1
  16    9   10 ar
  17    9   45 1
  18   10   11 ar
  19   10   46 1
  20   11   21 1
  21   12   13 ar
  22   12   14 ar
  23   13   17 ar
  24   13   47 1
  25   14   15 ar
  26   14   48 1
  27   15   16 ar
  28   15   49 1
  29   16   17 ar
  30   16   22 1
  31   17   50 1
  32   18   19 2
  33   18   20 am
  34   20   23 1
  35   20   27 1
  36   22   41 1
  37   23   24 1
  38   23   51 1
  39   23   52 1
  40   24   25 1
  41   24   53 1
  42   24   54 1
  43   25   26 1
  44   25   28 1
  45   25   31 1
  46   26   27 1
  47   26   55 1
  48   26   56 1
  49   27   57 1
  50   27   58 1
  51   28   29 2
  52   28   30 am
  53   30   59 1
  54   30   60 1
  55   31   32 ar
  56   31   36 ar
  57   32   33 ar
  58   32   61 1
  59   33   34 ar
  60   33   62 1
  61   34   35 ar
  62   34   63 1
  63   35   36 ar
  64   35   64 1
  65   36   65 1
  66   37   38 am
  67   37   66 1
  68   37   67 1
  69   38   39 2
  70   38   40 1
  71   40   41 1
  72   40   68 1
  73   40   69 1
  74   41   70 1
  75   41   71 1

#	End of record

