#	Name: ASD01180026
#	Creating user name:	WinNT
#	Creation time:	15. 06. 2019 19:06

#	Modifying user name:	WinNT
#	Modification time:	15. 06. 2019 19:06

#	Program:	/corina/corina34_cracker 3.40 0067  02.08.2006

@<TRIPOS>MOLECULE
ASD01180026
  30   31    0    0    0
SMALL
NO_CHARGES


@<TRIPOS>ATOM
   1 N1            -0.0080     1.2703     0.2755 N.ar    
   2 C2             0.0028    -0.0191     0.0384 C.ar    
   3 C3             1.2074    -0.6837    -0.2524 C.ar    
   4 N4             2.3466    -0.0191    -0.2907 N.ar    
   5 C5             2.3534     1.2983    -0.0508 C.ar    
   6 C6             3.5500     2.0331    -0.0847 C.ar    
   7 C7             3.5278     3.3727     0.1627 C.ar    
   8 C8             2.3301     4.0284     0.4503 C.ar    
   9 C9             1.1516     3.3464     0.4913 C.ar    
  10 C10            1.1370     1.9641     0.2413 C.ar    
  11 S11           -1.5061    -0.9277     0.0850 S.o2    
  12 O12           -1.1265    -2.2135     0.5561 O.2     
  13 O13           -2.3883    -0.1038     0.8349 O.2     
  14 C14           -2.0356    -1.0153    -1.6478 C.3     
  15 Cl15           2.3422     5.7364     0.7606 Cl      
  16 Cl16           5.0097     4.2760     0.1202 Cl      
  17 C17            1.6369    -2.3370    -1.8723 C.3     
  18 N18            1.1980    -2.0483    -0.5005 N.3     
  19 C19            2.0239    -2.7671     0.4788 C.3     
  20 H20            4.4840     1.5380    -0.3056 H       
  21 H21            0.2320     3.8664     0.7154 H       
  22 H22           -1.2719    -1.5245    -2.2357 H       
  23 H23           -2.9731    -1.5673    -1.7138 H       
  24 H24           -2.1797    -0.0067    -2.0351 H       
  25 H25            2.6505    -1.9627    -2.0159 H       
  26 H26            1.6202    -3.4139    -2.0401 H       
  27 H27            0.9658    -1.8487    -2.5789 H       
  28 H28            1.6920    -2.5180     1.4867 H       
  29 H29            1.9254    -3.8408     0.3188 H       
  30 H30            3.0673    -2.4759     0.3575 H       
@<TRIPOS>BOND
   1    1    2 ar
   2    1   10 ar
   3    2    3 ar
   4    2   11 1
   5    3    4 ar
   6    3   18 1
   7    4    5 ar
   8    5    6 ar
   9    5   10 ar
  10    6    7 ar
  11    6   20 1
  12    7    8 ar
  13    7   16 1
  14    8    9 ar
  15    8   15 1
  16    9   10 ar
  17    9   21 1
  18   11   12 2
  19   11   13 2
  20   11   14 1
  21   14   22 1
  22   14   23 1
  23   14   24 1
  24   17   18 1
  25   17   25 1
  26   17   26 1
  27   17   27 1
  28   18   19 1
  29   19   28 1
  30   19   29 1
  31   19   30 1

#	End of record

