#	Name: ASD07930361
#	Creating user name:	WinNT
#	Creation time:	15. 06. 2019 21:12

#	Modifying user name:	WinNT
#	Modification time:	15. 06. 2019 21:12

#	Program:	/corina/corina34_cracker 3.40 0067  02.08.2006

@<TRIPOS>MOLECULE
ASD07930361
  47   48    0    0    0
SMALL
NO_CHARGES


@<TRIPOS>ATOM
   1 N1             0.0701     1.4482     0.1953 N.pl3   
   2 C2             0.0021    -0.0041     0.0020 C.3     
   3 C3             0.5405    -0.7057     1.2571 C.3     
   4 N4             2.0267     1.5655     1.4947 N.am    
   5 C5             1.2730     2.0487     0.4495 C.2     
   6 C6            -1.4293    -0.4147    -0.2295 C.ar    
   7 C7            -1.7135    -1.5326    -0.9950 C.ar    
   8 C8             2.6265     2.4604     2.4876 C.3     
   9 C9             0.8507    -0.3990    -1.2082 C.3     
  10 C10           -2.4598     0.3226     0.3280 C.ar    
  11 C11           -3.7746    -0.0549     0.1157 C.ar    
  12 C12           -4.0590    -1.1695    -0.6545 C.ar    
  13 C13           -3.0283    -1.9098    -1.2077 C.ar    
  14 F14           -0.7077    -2.2551    -1.5349 F       
  15 F15           -5.3422    -1.5382    -0.8612 F       
  16 F16           -2.1822     1.4104     1.0797 F       
  17 S17            2.2230    -0.0872     1.5761 S.o2    
  18 O18            2.6053    -0.3361     2.9219 O.2     
  19 O19            3.0887    -0.3983     0.4930 O.2     
  20 N20            1.6990     3.0628    -0.2877 N.2     
  21 O21            1.3833     4.5497    -2.0507 O.3     
  22 C22            0.5319     4.9815    -3.1140 C.3     
  23 C23           -0.8146     5.4274    -2.5402 C.3     
  24 C24            1.1867     6.1535    -3.8479 C.3     
  25 C25            0.3118     3.8260    -4.0924 C.3     
  26 C26            0.9492     3.5161    -1.2994 C.2     
  27 O27           -0.1245     2.9961    -1.5420 O.2     
  28 H28           -0.7369     1.9834     0.1391 H       
  29 H29           -0.1018    -0.4805     2.1085 H       
  30 H30            0.5696    -1.7828     1.0924 H       
  31 H31            2.3735     3.4927     2.2461 H       
  32 H32            2.2425     2.2142     3.4775 H       
  33 H33            3.7098     2.3400     2.4778 H       
  34 H34            1.8199     0.0963    -1.1497 H       
  35 H35            0.9946    -1.4795    -1.2140 H       
  36 H36            0.3422    -0.0953    -2.1233 H       
  37 H37           -4.5785     0.5200     0.5513 H       
  38 H38           -3.2502    -2.7794    -1.8085 H       
  39 H39           -0.6578     6.2506    -1.8432 H       
  40 H40           -1.4640     5.7567    -3.3513 H       
  41 H41           -1.2811     4.5924    -2.0174 H       
  42 H42            2.1460     5.8358    -4.2567 H       
  43 H43            0.5373     6.4828    -4.6589 H       
  44 H44            1.3435     6.9766    -3.1508 H       
  45 H45           -0.1548     2.9911    -3.5696 H       
  46 H46           -0.3377     4.1554    -4.9035 H       
  47 H47            1.2710     3.5084    -4.5012 H       
@<TRIPOS>BOND
   1    1    2 1
   2    1    5 1
   3    1   28 1
   4    2    3 1
   5    2    6 1
   6    2    9 1
   7    3   17 1
   8    3   29 1
   9    3   30 1
  10    4    5 1
  11    4    8 1
  12    4   17 am
  13    5   20 2
  14    6   10 ar
  15    6    7 ar
  16    7   14 1
  17    7   13 ar
  18    8   31 1
  19    8   32 1
  20    8   33 1
  21    9   34 1
  22    9   35 1
  23    9   36 1
  24   10   11 ar
  25   10   16 1
  26   11   12 ar
  27   11   37 1
  28   12   13 ar
  29   12   15 1
  30   13   38 1
  31   17   18 2
  32   17   19 2
  33   20   26 1
  34   21   22 1
  35   21   26 1
  36   22   23 1
  37   22   24 1
  38   22   25 1
  39   23   39 1
  40   23   40 1
  41   23   41 1
  42   24   42 1
  43   24   43 1
  44   24   44 1
  45   25   45 1
  46   25   46 1
  47   25   47 1
  48   26   27 2

#	End of record

