#	Name: ASD00841945
#	Creating user name:	WinNT
#	Creation time:	15. 06. 2019 18:43

#	Modifying user name:	WinNT
#	Modification time:	15. 06. 2019 18:43

#	Program:	/corina/corina34_cracker 3.40 0067  02.08.2006

@<TRIPOS>MOLECULE
ASD00841945
  89   94    0    0    0
SMALL
NO_CHARGES


@<TRIPOS>ATOM
   1 C1             0.9806     1.5570    -0.3570 C.ar    
   2 C2             1.2951     0.2306    -0.6138 C.ar    
   3 C3             1.2389    -0.7040     0.4102 C.ar    
   4 C4             0.8701    -0.3118     1.6822 C.ar    
   5 C5             0.5567     1.0110     1.9355 C.ar    
   6 C6             0.6123     1.9443     0.9171 C.ar    
   7 C7             1.5794    -2.1460     0.1346 C.3     
   8 C8             1.3247    -2.9950     1.3619 C.2     
   9 C9             0.7718    -2.6680    -1.0554 C.3     
  10 C10           -0.6974    -2.4510    -0.7994 C.2     
  11 N11           -1.6103    -2.9231    -1.6713 N.am    
  12 O12           -1.0582    -1.8516     0.1913 O.2     
  13 C13           -3.0379    -2.6230    -1.4962 C.3     
  14 C14           -3.8219    -3.9391    -1.4963 C.3     
  15 C15           -3.4959    -4.7224    -2.7700 C.3     
  16 C16           -2.0014    -5.0505    -2.8006 C.3     
  17 C17           -1.1961    -3.7424    -2.8185 C.3     
  18 C18           -4.3036    -6.0217    -2.7901 C.3     
  19 C19           -5.7992    -5.6950    -2.7612 C.3     
  20 C20           -6.6021    -6.9953    -2.8430 C.3     
  21 N21           -6.2617    -7.7051    -4.0826 N.3     
  22 C22           -4.8399    -8.0710    -4.1117 C.3     
  23 C23           -3.9844    -6.8029    -4.0678 C.3     
  24 C24           -7.1136    -8.8882    -4.2627 C.3     
  25 O25            0.2583    -3.1582     1.9162 O.2     
  26 N26            2.5020    -3.5333     1.7219 N.am    
  27 C27            3.0614    -2.3010    -0.1187 C.ar    
  28 C28            3.5412    -3.1463     0.8742 C.ar    
  29 C29            3.9054    -1.7873    -1.0773 C.ar    
  30 C30            5.2514    -2.1125    -1.0588 C.ar    
  31 C31            5.7426    -2.9546    -0.0739 C.ar    
  32 C32            4.8958    -3.4704     0.8885 C.ar    
  33 Cl33           6.3197    -1.4678    -2.2658 Cl      
  34 F34            7.0555    -3.2727    -0.0546 F       
  35 C35            2.4524    -6.1877     2.4473 C.ar    
  36 C36            3.5260    -6.9217     1.9776 C.ar    
  37 C37            1.1879    -6.7464     2.4720 C.ar    
  38 C38            0.9941    -8.0398     2.0272 C.ar    
  39 C39            2.0696    -8.7783     1.5555 C.ar    
  40 C40            3.3374    -8.2153     1.5313 C.ar    
  41 O41            1.8817   -10.0511     1.1178 O.3     
  42 H42            4.5127    -6.4831     1.9593 H       
  43 C43            3.0343   -10.7518     0.6460 C.3     
  44 S44            2.6975    -4.5402     3.0220 S.o2    
  45 O45            4.0640    -4.4463     3.4004 O.2     
  46 O46            1.6241    -4.2614     3.9105 O.2     
  47 O47            1.6571    -0.1529    -1.8663 O.3     
  48 C48            2.1217     0.2538    -4.2028 C.3     
  49 C49            1.5846     0.8371    -2.8942 C.3     
  50 H50            1.0279     2.2872    -1.1513 H       
  51 H51            0.8263    -1.0389     2.4796 H       
  52 H52            0.2679     1.3156     2.9306 H       
  53 H53            0.3670     2.9768     1.1175 H       
  54 H54            1.0664    -2.1321    -1.9576 H       
  55 H55            0.9644    -3.7329    -1.1861 H       
  56 H56           -3.1893    -2.1076    -0.5478 H       
  57 H57           -3.3820    -1.9926    -2.3161 H       
  58 H58           -3.5415    -4.5297    -0.6242 H       
  59 H59           -4.8904    -3.7260    -1.4637 H       
  60 H60           -3.7537    -4.1213    -3.6419 H       
  61 H61           -1.7381    -5.6307    -1.9162 H       
  62 H62           -1.7741    -5.6285    -3.6964 H       
  63 H63           -1.3913    -3.2058    -3.7470 H       
  64 H64           -0.1324    -3.9670    -2.7405 H       
  65 H65           -4.0455    -6.6246    -1.9194 H       
  66 H66           -6.0405    -5.1761    -1.8335 H       
  67 H67           -6.0492    -5.0589    -3.6103 H       
  68 H68           -6.3618    -7.6250    -1.9863 H       
  69 H69           -7.6675    -6.7653    -2.8370 H       
  70 H70           -4.6079    -8.6956    -3.2491 H       
  71 H71           -4.6254    -8.6223    -5.0272 H       
  72 H72           -4.2059    -6.1842    -4.9375 H       
  73 H73           -2.9290    -7.0754    -4.0736 H       
  74 H74           -8.1579    -8.5799    -4.3119 H       
  75 H75           -6.8404    -9.3952    -5.1881 H       
  76 H76           -6.9746    -9.5675    -3.4216 H       
  77 H77            3.5182    -1.1317    -1.8432 H       
  78 H78            5.2851    -4.1258     1.6536 H       
  79 H79            0.3510    -6.1712     2.8397 H       
  80 H80            0.0063    -8.4759     2.0471 H       
  81 H81            4.1763    -8.7883     1.1649 H       
  82 H82            3.4671   -10.2131    -0.1970 H       
  83 H83            3.7694   -10.8233     1.4475 H       
  84 H84            2.7454   -11.7534     0.3275 H       
  85 H85            2.1480     1.0333    -4.9642 H       
  86 H86            3.1285    -0.1318    -4.0425 H       
  87 H87            1.4710    -0.5556    -4.5338 H       
  88 H88            0.5475     1.1431    -3.0315 H       
  89 H89            2.1838     1.7018    -2.6089 H       
@<TRIPOS>BOND
   1    1    2 ar
   2    1    6 ar
   3    1   50 1
   4    2    3 ar
   5    2   47 1
   6    3    4 ar
   7    3    7 1
   8    4    5 ar
   9    4   51 1
  10    5    6 ar
  11    5   52 1
  12    6   53 1
  13    7    8 1
  14    7    9 1
  15    7   27 1
  16    8   25 2
  17    8   26 am
  18    9   10 1
  19    9   54 1
  20    9   55 1
  21   10   11 am
  22   10   12 2
  23   11   13 1
  24   11   17 1
  25   13   14 1
  26   13   56 1
  27   13   57 1
  28   14   15 1
  29   14   58 1
  30   14   59 1
  31   15   16 1
  32   15   18 1
  33   15   60 1
  34   16   17 1
  35   16   61 1
  36   16   62 1
  37   17   63 1
  38   17   64 1
  39   18   19 1
  40   18   23 1
  41   18   65 1
  42   19   20 1
  43   19   66 1
  44   19   67 1
  45   20   21 1
  46   20   68 1
  47   20   69 1
  48   21   22 1
  49   21   24 1
  50   22   23 1
  51   22   70 1
  52   22   71 1
  53   23   72 1
  54   23   73 1
  55   24   74 1
  56   24   75 1
  57   24   76 1
  58   26   44 am
  59   26   28 1
  60   27   28 ar
  61   27   29 ar
  62   28   32 ar
  63   29   30 ar
  64   29   77 1
  65   30   31 ar
  66   30   33 1
  67   31   32 ar
  68   31   34 1
  69   32   78 1
  70   35   36 ar
  71   35   37 ar
  72   35   44 1
  73   36   42 1
  74   36   40 ar
  75   37   38 ar
  76   37   79 1
  77   38   39 ar
  78   38   80 1
  79   39   40 ar
  80   39   41 1
  81   40   81 1
  82   41   43 1
  83   43   82 1
  84   43   83 1
  85   43   84 1
  86   44   45 2
  87   44   46 2
  88   47   49 1
  89   48   49 1
  90   48   85 1
  91   48   86 1
  92   48   87 1
  93   49   88 1
  94   49   89 1

#	End of record

