#	Name: ASD07300853
#	Creating user name:	WinNT
#	Creation time:	15. 06. 2019 21:10

#	Modifying user name:	WinNT
#	Modification time:	15. 06. 2019 21:10

#	Program:	/corina/corina34_cracker 3.40 0067  02.08.2006

@<TRIPOS>MOLECULE
ASD07300853
  53   56    0    0    0
SMALL
NO_CHARGES


@<TRIPOS>ATOM
   1 N1            -0.0163     1.3527     0.0095 N.am    
   2 C2             0.0021    -0.0041     0.0020 C.2     
   3 N3             1.1018    -0.6986    -0.0118 N.2     
   4 C4             2.3098    -0.1133    -0.0201 C.2     
   5 C5             2.3914     1.2881    -0.0138 C.2     
   6 C6             1.1433     2.0510     0.0022 C.2     
   7 N7             3.5868    -0.5761    -0.0344 N.pl3   
   8 N8             4.4535     0.5241    -0.0369 N.2     
   9 C9             3.7572     1.6272    -0.0249 C.2     
  10 O10            1.1474     3.2693     0.0079 O.2     
  11 C11            3.9887    -1.9848    -0.0448 C.3     
  12 C12            4.8114    -2.2736    -1.3042 C.3     
  13 C13            5.2930    -3.7264    -1.2676 C.3     
  14 O14            6.0561    -3.9441    -0.0792 O.3     
  15 C15            5.3246    -3.7351     1.1304 C.3     
  16 C16            4.8443    -2.2827     1.1903 C.3     
  17 C17           -1.3127    -0.7405     0.0106 C.3     
  18 C18           -1.2319    -2.1525    -0.5933 C.3     
  19 C19           -2.1705    -2.6047     0.5378 C.3     
  20 C20           -1.6303    -1.4185     1.3539 C.3     
  21 C21           -1.8456    -2.2582    -1.9656 C.2     
  22 O22           -2.3398    -1.2804    -2.4858 O.2     
  23 N23           -1.8452    -3.4393    -2.6148 N.am    
  24 C24           -2.4418    -3.5420    -3.9488 C.3     
  25 C25           -1.4110    -3.1298    -5.0017 C.3     
  26 C26           -2.8731    -4.9643    -4.1980 C.2     
  27 C27           -3.8095    -5.2794    -5.3360 C.3     
  28 O28           -2.4684    -5.8516    -3.4858 O.2     
  29 H29           -0.8640     1.8242     0.0160 H       
  30 H30            4.1599     2.6293    -0.0236 H       
  31 H31            3.1010    -2.6173    -0.0362 H       
  32 H32            4.1923    -2.1172    -2.1875 H       
  33 H33            5.6719    -1.6054    -1.3383 H       
  34 H34            4.4321    -4.3950    -1.2744 H       
  35 H35            5.9148    -3.9253    -2.1405 H       
  36 H36            4.4642    -4.4038     1.1551 H       
  37 H37            5.9692    -3.9403     1.9851 H       
  38 H38            5.7055    -1.6147     1.2065 H       
  39 H39            4.2488    -2.1328     2.0908 H       
  40 H40           -2.1349    -0.1434    -0.3838 H       
  41 H41           -0.2371    -2.5946    -0.5382 H       
  42 H42           -3.2280    -2.5177     0.2886 H       
  43 H43           -1.9120    -3.5770     0.9572 H       
  44 H44           -0.7444    -1.6599     1.9413 H       
  45 H45           -2.3958    -0.9024     1.9332 H       
  46 H46           -1.4499    -4.2213    -2.1987 H       
  47 H47           -3.3081    -2.8835    -4.0111 H       
  48 H48           -1.8549    -3.2062    -5.9942 H       
  49 H49           -1.0991    -2.1011    -4.8214 H       
  50 H50           -0.5447    -3.7884    -4.9394 H       
  51 H51           -4.0643    -4.3594    -5.8622 H       
  52 H52           -3.3239    -5.9698    -6.0256 H       
  53 H53           -4.7176    -5.7368    -4.9433 H       
@<TRIPOS>BOND
   1    1    2 1
   2    1    6 am
   3    1   29 1
   4    2    3 2
   5    2   17 1
   6    3    4 1
   7    4    5 2
   8    4    7 1
   9    5    6 1
  10    5    9 1
  11    6   10 2
  12    7    8 1
  13    7   11 1
  14    8    9 2
  15    9   30 1
  16   11   12 1
  17   11   16 1
  18   11   31 1
  19   12   13 1
  20   12   32 1
  21   12   33 1
  22   13   14 1
  23   13   34 1
  24   13   35 1
  25   14   15 1
  26   15   16 1
  27   15   36 1
  28   15   37 1
  29   16   38 1
  30   16   39 1
  31   17   18 1
  32   17   20 1
  33   17   40 1
  34   18   19 1
  35   18   21 1
  36   18   41 1
  37   19   20 1
  38   19   42 1
  39   19   43 1
  40   20   44 1
  41   20   45 1
  42   21   22 2
  43   21   23 am
  44   23   24 1
  45   23   46 1
  46   24   25 1
  47   24   26 1
  48   24   47 1
  49   25   48 1
  50   25   49 1
  51   25   50 1
  52   26   27 1
  53   26   28 2
  54   27   51 1
  55   27   52 1
  56   27   53 1

#	End of record

