#	Name: ASD02560056
#	Creating user name:	WinNT
#	Creation time:	15. 06. 2019 20:24

#	Modifying user name:	WinNT
#	Modification time:	15. 06. 2019 20:24

#	Program:	/corina/corina34_cracker 3.40 0067  02.08.2006

@<TRIPOS>MOLECULE
ASD02560056
  37   39    0    0    0
SMALL
NO_CHARGES


@<TRIPOS>ATOM
   1 C1            -0.0495     1.3499    -0.0371 C.ar    
   2 C2            -0.0287    -0.0321    -0.0513 C.ar    
   3 C3             1.1783    -0.7056    -0.0599 C.ar    
   4 C4             2.3665     0.0033    -0.0544 C.ar    
   5 C5             2.3463     1.3864    -0.0403 C.ar    
   6 C6             1.1380     2.0599    -0.0316 C.ar    
   7 Cl7            3.8823    -0.8427    -0.0647 Cl      
   8 N8             3.6703     3.5335    -2.0619 N.ar    
   9 C9             4.0698     2.4313    -1.4523 C.ar    
  10 C10            3.6401     2.1592    -0.0338 C.3     
  11 C11            4.0475     3.7771    -3.3151 C.ar    
  12 N12            4.8265     2.9104    -3.9528 N.ar    
  13 C13            5.2260     1.8032    -3.3365 C.ar    
  14 N14            4.8448     1.5667    -2.0836 N.ar    
  15 N15            6.0363     0.8986    -3.9956 N.pl3   
  16 C16            6.3393     1.0871    -5.3431 C.ar    
  17 C17            5.3911     1.6426    -6.1966 C.ar    
  18 C18            5.6871     1.8306    -7.5279 C.ar    
  19 C19            6.9421     1.4628    -8.0219 C.ar    
  20 C20            7.8923     0.9050    -7.1615 C.ar    
  21 C21            7.5913     0.7248    -5.8303 C.ar    
  22 Cl22           1.1117     3.7956    -0.0144 Cl      
  23 N23            3.6296     4.9283    -3.9511 N.pl3   
  24 C24            7.2534     1.6564    -9.4062 C.1     
  25 N25            7.5003     1.8101   -10.5043 N.1     
  26 H26           -0.9929     1.8756    -0.0349 H       
  27 H27           -0.9559    -0.5859    -0.0552 H       
  28 H28            1.1940    -1.7854    -0.0707 H       
  29 H29            3.4962     3.1042     0.4899 H       
  30 H30            4.4089     1.5762     0.4733 H       
  31 H31            6.3943     0.1324    -3.5206 H       
  32 H32            4.4217     1.9262    -5.8144 H       
  33 H33            4.9506     2.2614    -8.1899 H       
  34 H34            8.8628     0.6198    -7.5399 H       
  35 H35            8.3249     0.2939    -5.1650 H       
  36 H36            3.0605     5.5606    -3.4850 H       
  37 H37            3.9048     5.1051    -4.8643 H       
@<TRIPOS>BOND
   1    1    2 ar
   2    1    6 ar
   3    1   26 1
   4    2    3 ar
   5    2   27 1
   6    3    4 ar
   7    3   28 1
   8    4    5 ar
   9    4    7 1
  10    5    6 ar
  11    5   10 1
  12    6   22 1
  13    8    9 ar
  14    8   11 ar
  15    9   10 1
  16    9   14 ar
  17   10   29 1
  18   10   30 1
  19   11   12 ar
  20   11   23 1
  21   12   13 ar
  22   13   14 ar
  23   13   15 1
  24   15   16 1
  25   15   31 1
  26   16   17 ar
  27   16   21 ar
  28   17   18 ar
  29   17   32 1
  30   18   19 ar
  31   18   33 1
  32   19   20 ar
  33   19   24 1
  34   20   21 ar
  35   20   34 1
  36   21   35 1
  37   23   36 1
  38   23   37 1
  39   24   25 3

#	End of record

