#	Name: ASD09740148
#	Creating user name:	WinNT
#	Creation time:	15. 06. 2019 21:22

#	Modifying user name:	WinNT
#	Modification time:	15. 06. 2019 21:22

#	Program:	/corina/corina34_cracker 3.40 0067  02.08.2006

@<TRIPOS>MOLECULE
ASD09740148
  55   57    0    0    0
SMALL
NO_CHARGES


@<TRIPOS>ATOM
   1 O1            -0.0144     1.2085     0.0087 O.3     
   2 N2             0.0021    -0.0041     0.0020 N.2     
   3 C3             1.2413     1.6828    -0.0008 C.2     
   4 N4             2.0459     0.6359    -0.0141 N.2     
   5 C5             1.2348    -0.4424    -0.0121 C.2     
   6 C6             1.6623    -1.8639    -0.0234 C.ar    
   7 C7             1.6455     3.1033     0.0030 C.ar    
   8 C8             0.7097    -2.8803    -0.0198 C.ar    
   9 C9             3.0177    -2.1863    -0.0434 C.ar    
  10 C10            3.4095    -3.5095    -0.0543 C.ar    
  11 C11            2.4594    -4.5150    -0.0458 C.ar    
  12 C12            1.1127    -4.2005    -0.0308 C.ar    
  13 C13            0.6743     4.1074     0.0182 C.ar    
  14 C14            1.0574     5.4348     0.0216 C.ar    
  15 C15            2.4105     5.7696     0.0099 C.ar    
  16 C16            3.3748     4.7723    -0.0056 C.ar    
  17 C17            2.9990     3.4455    -0.0028 C.ar    
  18 O18            0.1145     6.4147     0.0359 O.3     
  19 C19           -0.7581    -2.5391    -0.0034 C.3     
  20 C20            0.0834    -5.3012    -0.0216 C.3     
  21 N21           -0.4414    -5.4922    -1.3804 N.3     
  22 C22            0.6027    -5.9976    -2.2817 C.3     
  23 C23           -1.6081    -6.3847    -1.3734 C.3     
  24 C24           -1.2528     5.9993     0.0469 C.3     
  25 C25           -2.1600     7.2313     0.0622 C.3     
  26 O26            2.7857     7.0754     0.0133 O.3     
  27 C27            4.1886     7.3473     0.0008 C.3     
  28 C28            4.4149     8.8605     0.0068 C.3     
  29 H29            3.7602    -1.4021    -0.0508 H       
  30 H30            4.4598    -3.7605    -0.0698 H       
  31 H31            2.7703    -5.5492    -0.0551 H       
  32 H32           -0.3737     3.8466     0.0269 H       
  33 H33            4.4222     5.0356    -0.0153 H       
  34 H34            3.7517     2.6711    -0.0150 H       
  35 H35           -1.1221    -2.4510    -1.0271 H       
  36 H36           -1.3084    -3.3267     0.5114 H       
  37 H37           -0.9054    -1.5929     0.5173 H       
  38 H38            0.5443    -6.2268     0.3233 H       
  39 H39           -0.7326    -5.0300     0.6482 H       
  40 H40            0.9704    -6.9545    -1.9114 H       
  41 H41            0.1873    -6.1300    -3.2807 H       
  42 H42            1.4250    -5.2833    -2.3219 H       
  43 H43           -2.3931    -5.9518    -0.7533 H       
  44 H44           -1.9766    -6.5090    -2.3917 H       
  45 H45           -1.3205    -7.3557    -0.9702 H       
  46 H46           -1.4596     5.4068    -0.8443 H       
  47 H47           -1.4425     5.3973     0.9355 H       
  48 H48           -1.9702     7.8333    -0.8264 H       
  49 H49           -3.2029     6.9144     0.0705 H       
  50 H50           -1.9531     7.8237     0.9534 H       
  51 H51            4.6519     6.9071     0.8838 H       
  52 H52            4.6341     6.9168    -0.8961 H       
  53 H53            3.9516     9.3006    -0.8762 H       
  54 H54            3.9693     9.2909     0.9036 H       
  55 H55            5.4849     9.0678    -0.0028 H       
@<TRIPOS>BOND
   1    1    2 1
   2    1    3 1
   3    2    5 2
   4    3    4 2
   5    3    7 1
   6    4    5 1
   7    5    6 1
   8    6    8 ar
   9    6    9 ar
  10    7   13 ar
  11    7   17 ar
  12    8   12 ar
  13    8   19 1
  14    9   10 ar
  15    9   29 1
  16   10   11 ar
  17   10   30 1
  18   11   12 ar
  19   11   31 1
  20   12   20 1
  21   13   14 ar
  22   13   32 1
  23   14   15 ar
  24   14   18 1
  25   15   16 ar
  26   15   26 1
  27   16   17 ar
  28   16   33 1
  29   17   34 1
  30   18   24 1
  31   19   35 1
  32   19   36 1
  33   19   37 1
  34   20   21 1
  35   20   38 1
  36   20   39 1
  37   21   22 1
  38   21   23 1
  39   22   40 1
  40   22   41 1
  41   22   42 1
  42   23   43 1
  43   23   44 1
  44   23   45 1
  45   24   25 1
  46   24   46 1
  47   24   47 1
  48   25   48 1
  49   25   49 1
  50   25   50 1
  51   26   27 1
  52   27   28 1
  53   27   51 1
  54   27   52 1
  55   28   53 1
  56   28   54 1
  57   28   55 1

#	End of record

