#	Name: ASD00431209
#	Creating user name:	WinNT
#	Creation time:	15. 06. 2019 18:35

#	Modifying user name:	WinNT
#	Modification time:	15. 06. 2019 18:35

#	Program:	/corina/corina34_cracker 3.40 0067  02.08.2006

@<TRIPOS>MOLECULE
ASD00431209
  50   53    0    0    0
SMALL
NO_CHARGES


@<TRIPOS>ATOM
   1 C1            -0.0107     0.9376     0.6595 C.2     
   2 N2             0.2350    -0.3876     0.6725 N.am    
   3 O3             0.8733     1.7165     0.3623 O.2     
   4 O4            -1.2370     1.3979     0.9706 O.3     
   5 C5             1.5678    -0.8888     0.3281 C.3     
   6 C6             2.4603    -0.8599     1.5705 C.3     
   7 O7             0.6584    -3.2664     0.3064 O.3     
   8 N8             0.7837    -4.3045    -0.3008 N.2     
   9 C9             1.6691    -4.1910    -1.2636 C.2     
  10 C10            2.1434    -2.8481    -1.2066 C.2     
  11 C11            1.4570    -2.3040    -0.1779 C.2     
  12 S12            3.2818    -5.0624    -3.4970 S.3     
  13 C13            3.0471    -6.6919    -3.9576 C.2     
  14 N14            2.1601    -7.2523    -3.1944 N.2     
  15 C15            1.6257    -6.5087    -2.2507 C.2     
  16 C16            2.0886    -5.2416    -2.2131 C.2     
  17 O17            3.6947    -7.3096    -4.9742 O.3     
  18 C18            3.3242    -8.5785    -5.2890 C.ar    
  19 C19            2.1525    -8.8044    -5.9957 C.ar    
  20 C20            1.7777   -10.0999    -6.3157 C.ar    
  21 C21            2.5755   -11.1676    -5.9284 C.ar    
  22 C22            3.7421   -10.9402    -5.2241 C.ar    
  23 C23            4.1210    -9.6492    -4.9087 C.ar    
  24 O24            0.6299   -10.3244    -7.0077 O.3     
  25 C25            0.3058   -11.6846    -7.3028 C.3     
  26 C26           -1.0106   -11.7379    -8.0807 C.3     
  27 C27           -1.4725   -13.1030    -8.5948 C.3     
  28 C28           -2.1948   -12.4443    -7.4177 C.3     
  29 C29           -1.4294     2.8367     0.9360 C.3     
  30 H30           -0.4706    -1.0094     0.9098 H       
  31 H31            2.0038    -0.2589    -0.4472 H       
  32 H32            2.0243    -1.4899     2.3459 H       
  33 H33            3.4519    -1.2328     1.3143 H       
  34 H34            2.5405     0.1637     1.9365 H       
  35 H35            2.8803    -2.3753    -1.8389 H       
  36 H36            0.8793    -6.8804    -1.5643 H       
  37 H37            1.5330    -7.9722    -6.2958 H       
  38 H38            2.2838   -12.1772    -6.1775 H       
  39 H39            4.3612   -11.7724    -4.9233 H       
  40 H40            5.0359    -9.4736    -4.3622 H       
  41 H41            1.1012   -12.1254    -7.9038 H       
  42 H42            0.2012   -12.2432    -6.3727 H       
  43 H43           -1.2261   -10.8675    -8.7004 H       
  44 H44           -1.9922   -13.1305    -9.5525 H       
  45 H45           -0.8386   -13.9629    -8.3788 H       
  46 H46           -2.0360   -12.8710    -6.4273 H       
  47 H47           -3.1897   -12.0386    -7.6010 H       
  48 H48           -0.7501     3.3112     1.6442 H       
  49 H49           -1.2238     3.2067    -0.0684 H       
  50 H50           -2.4588     3.0722     1.2063 H       
@<TRIPOS>BOND
   1    1    2 am
   2    1    3 2
   3    1    4 1
   4    2    5 1
   5    2   30 1
   6    4   29 1
   7    5    6 1
   8    5   11 1
   9    5   31 1
  10    6   32 1
  11    6   33 1
  12    6   34 1
  13    7    8 1
  14    7   11 1
  15    8    9 2
  16    9   10 1
  17    9   16 1
  18   10   11 2
  19   10   35 1
  20   12   13 1
  21   12   16 1
  22   13   14 2
  23   13   17 1
  24   14   15 1
  25   15   16 2
  26   15   36 1
  27   17   18 1
  28   18   19 ar
  29   18   23 ar
  30   19   20 ar
  31   19   37 1
  32   20   21 ar
  33   20   24 1
  34   21   22 ar
  35   21   38 1
  36   22   23 ar
  37   22   39 1
  38   23   40 1
  39   24   25 1
  40   25   26 1
  41   25   41 1
  42   25   42 1
  43   26   27 1
  44   26   28 1
  45   26   43 1
  46   27   28 1
  47   27   44 1
  48   27   45 1
  49   28   46 1
  50   28   47 1
  51   29   48 1
  52   29   49 1
  53   29   50 1

#	End of record

