#	Name: ASD08150215
#	Creating user name:	WinNT
#	Creation time:	15. 06. 2019 21:15

#	Modifying user name:	WinNT
#	Modification time:	15. 06. 2019 21:15

#	Program:	/corina/corina34_cracker 3.40 0067  02.08.2006

@<TRIPOS>MOLECULE
ASD08150215
  63   68    0    0    0
SMALL
NO_CHARGES


@<TRIPOS>ATOM
   1 N1            -0.0155     1.2942     0.0092 N.2     
   2 C2             0.0021    -0.0041     0.0020 C.2     
   3 N3             1.1491    -0.7357    -0.0129 N.am    
   4 C4             2.3562    -0.1239    -0.0211 C.2     
   5 C5             2.3708     1.3432    -0.0133 C.ar    
   6 C6             3.5654     2.0712    -0.0212 C.ar    
   7 C7             3.5174     3.4551    -0.0138 C.ar    
   8 C8             2.2992     4.1167     0.0013 C.ar    
   9 C9             1.1127     3.4156     0.0097 C.ar    
  10 C10            1.1305     2.0205     0.0021 C.ar    
  11 O11            3.3905    -0.7663    -0.0340 O.2     
  12 C12           -1.3144    -0.7375     0.0112 C.3     
  13 S13           -2.6718     0.4595     0.0311 S.3     
  14 N14           -5.9167     1.0923     0.0666 N.2     
  15 C15           -7.2139     0.9876     0.0790 C.2     
  16 N16           -7.5748    -0.3270     0.0762 N.pl3   
  17 C17           -6.4215    -1.0700     0.0611 C.ar    
  18 N18           -6.1424    -2.3695     0.0516 N.ar    
  19 C19           -4.8941    -2.7879     0.0367 C.ar    
  20 N20           -3.8681    -1.9572     0.0300 N.ar    
  21 C21           -4.0490    -0.6396     0.0389 C.ar    
  22 C22           -5.3645    -0.1444     0.0551 C.ar    
  23 C23            1.0800    -2.1350    -0.0193 C.ar    
  24 C24            1.0573    -2.8367     1.1803 C.ar    
  25 C25            0.9886    -4.2169     1.1699 C.ar    
  26 C26            0.9425    -4.8991    -0.0322 C.ar    
  27 C27            0.9653    -4.2034    -1.2268 C.ar    
  28 C28            1.0282    -2.8233    -1.2235 C.ar    
  29 Cl29           1.1159    -1.9806     2.6894 Cl      
  30 O30            4.7597     1.4274    -0.0356 O.3     
  31 C31            5.9348     2.2404    -0.0429 C.3     
  32 C32            7.1748     1.3443    -0.0588 C.3     
  33 O33            7.2158     0.6095    -1.2838 O.3     
  34 C34            8.3415    -0.2630    -1.4008 C.3     
  35 C35            8.2834    -0.9831    -2.7233 C.ar    
  36 C36            8.8876    -0.4317    -3.8377 C.ar    
  37 C37            8.8343    -1.0922    -5.0508 C.ar    
  38 C38            8.1773    -2.3045    -5.1495 C.ar    
  39 C39            7.5740    -2.8564    -4.0349 C.ar    
  40 C40            7.6310    -2.1979    -2.8208 C.ar    
  41 H41            4.4358     4.0233    -0.0195 H       
  42 H42            2.2798     5.1965     0.0069 H       
  43 H43            0.1713     3.9449     0.0222 H       
  44 H44           -1.3905    -1.3584    -0.8814 H       
  45 H45           -1.3729    -1.3680     0.8984 H       
  46 H46           -7.9027     1.8193     0.0899 H       
  47 H47           -8.4808    -0.6735     0.0835 H       
  48 H48           -4.7023    -3.8507     0.0297 H       
  49 H49            0.9713    -4.7632     2.1014 H       
  50 H50            0.8888    -5.9778    -0.0378 H       
  51 H51            0.9295    -4.7394    -2.1637 H       
  52 H52            1.0414    -2.2807    -2.1572 H       
  53 H53            5.9329     2.8739    -0.9299 H       
  54 H54            5.9498     2.8655     0.8499 H       
  55 H55            8.0698     1.9608     0.0251 H       
  56 H56            7.1320     0.6498     0.7802 H       
  57 H57            9.2606     0.3202    -1.3447 H       
  58 H58            8.3228    -0.9908    -0.5896 H       
  59 H59            9.4008     0.5154    -3.7606 H       
  60 H60            9.3057    -0.6610    -5.9216 H       
  61 H61            8.1351    -2.8202    -6.0975 H       
  62 H62            7.0605    -3.8033    -4.1121 H       
  63 H63            7.1628    -2.6309    -1.9492 H       
@<TRIPOS>BOND
   1    1    2 2
   2    1   10 1
   3    2    3 1
   4    2   12 1
   5    3    4 am
   6    3   23 1
   7    4    5 1
   8    4   11 2
   9    5    6 ar
  10    5   10 ar
  11    6    7 ar
  12    6   30 1
  13    7    8 ar
  14    7   41 1
  15    8    9 ar
  16    8   42 1
  17    9   10 ar
  18    9   43 1
  19   12   13 1
  20   12   44 1
  21   12   45 1
  22   13   21 1
  23   14   15 2
  24   14   22 1
  25   15   16 1
  26   15   46 1
  27   16   17 1
  28   16   47 1
  29   17   18 ar
  30   17   22 ar
  31   18   19 ar
  32   19   20 ar
  33   19   48 1
  34   20   21 ar
  35   21   22 ar
  36   23   24 ar
  37   23   28 ar
  38   24   25 ar
  39   24   29 1
  40   25   26 ar
  41   25   49 1
  42   26   27 ar
  43   26   50 1
  44   27   28 ar
  45   27   51 1
  46   28   52 1
  47   30   31 1
  48   31   32 1
  49   31   53 1
  50   31   54 1
  51   32   33 1
  52   32   55 1
  53   32   56 1
  54   33   34 1
  55   34   35 1
  56   34   57 1
  57   34   58 1
  58   35   36 ar
  59   35   40 ar
  60   36   37 ar
  61   36   59 1
  62   37   38 ar
  63   37   60 1
  64   38   39 ar
  65   38   61 1
  66   39   40 ar
  67   39   62 1
  68   40   63 1

#	End of record

