#	Name: ASD01350029
#	Creating user name:	WinNT
#	Creation time:	15. 06. 2019 19:16

#	Modifying user name:	WinNT
#	Modification time:	15. 06. 2019 19:16

#	Program:	/corina/corina34_cracker 3.40 0067  02.08.2006

@<TRIPOS>MOLECULE
ASD01350029
  65   67    0    0    0
SMALL
NO_CHARGES


@<TRIPOS>ATOM
   1 C1            -1.0514     0.8480     1.7393 C.3     
   2 C2            -1.1297    -0.6427     1.4037 C.3     
   3 C3            -0.1186    -0.9714     0.3034 C.3     
   4 C4             1.2919    -0.6313     0.7887 C.3     
   5 C5             1.3701     0.8594     1.1243 C.3     
   6 C6             0.3591     1.1882     2.2246 C.3     
   7 C7            -0.1957    -2.4397    -0.0271 C.ar    
   8 O8            -0.4187    -0.2040    -0.8640 O.3     
   9 C9            -1.3220    -2.9511    -0.6438 C.ar    
  10 C10           -1.3927    -4.2981    -0.9470 C.ar    
  11 C11           -0.3368    -5.1333    -0.6339 C.ar    
  12 C12            0.7902    -4.6216    -0.0179 C.ar    
  13 C13            0.8626    -3.2742     0.2813 C.ar    
  14 C14           -0.8084    -1.4644     2.6537 C.3     
  15 C15           -2.4731    -2.0405    -0.9852 C.3     
  16 C16           -2.5453    -1.8565    -2.5024 C.3     
  17 C17            0.5097    -0.3874    -1.9347 C.3     
  18 C18            0.0922     0.4776    -3.1257 C.3     
  19 N19            0.2437     1.8966    -2.7773 N.3     
  20 C20            1.6569     2.2968    -2.8024 C.3     
  21 C21           -0.5598     2.7458    -3.6667 C.3     
  22 C22            1.7867     3.7135    -2.3051 C.ar    
  23 C23            1.8605     3.9656    -0.9482 C.ar    
  24 C24            1.9795     5.2653    -0.4920 C.ar    
  25 C25            2.0252     6.3124    -1.3929 C.ar    
  26 C26            1.9523     6.0602    -2.7503 C.ar    
  27 C27            1.8376     4.7606    -3.2066 C.ar    
  28 C28            2.0589     5.5402     0.9876 C.3     
  29 H29           -1.2803     1.4334     0.8488 H       
  30 H30           -1.7717     1.0823     2.5231 H       
  31 H31           -2.1346    -0.8850     1.0580 H       
  32 H32            1.5208    -1.2167     1.6792 H       
  33 H33            2.0122    -0.8655     0.0049 H       
  34 H34            2.3750     1.1018     1.4701 H       
  35 H35            1.1412     1.4448     0.2338 H       
  36 H36            0.4148     2.2502     2.4637 H       
  37 H37            0.5880     0.6028     3.1151 H       
  38 H38           -2.2730    -4.6978    -1.4282 H       
  39 H39           -0.3924    -6.1857    -0.8701 H       
  40 H40            1.6150    -5.2743     0.2271 H       
  41 H41            1.7430    -2.8745     0.7625 H       
  42 H42           -1.4765    -1.1706     3.4633 H       
  43 H43           -0.9443    -2.5239     2.4368 H       
  44 H44            0.2245    -1.2840     2.9515 H       
  45 H45           -3.4037    -2.4816    -0.6280 H       
  46 H46           -2.3239    -1.0717    -0.5084 H       
  47 H47           -3.4188    -1.2551    -2.7543 H       
  48 H48           -1.6441    -1.3517    -2.8504 H       
  49 H49           -2.6244    -2.8315    -2.9832 H       
  50 H50            1.5068    -0.0951    -1.6052 H       
  51 H51            0.5184    -1.4359    -2.2325 H       
  52 H52            0.7236     0.2445    -3.9831 H       
  53 H53           -0.9491     0.2739    -3.3753 H       
  54 H54            2.2343     1.6320    -2.1600 H       
  55 H55            2.0342     2.2340    -3.8231 H       
  56 H56           -1.6156     2.5045    -3.5433 H       
  57 H57           -0.3948     3.7935    -3.4156 H       
  58 H58           -0.2653     2.5694    -4.7012 H       
  59 H59            1.8248     3.1473    -0.2442 H       
  60 H60            2.1174     7.3278    -1.0366 H       
  61 H61            1.9876     6.8785    -3.4543 H       
  62 H62            1.7807     4.5635    -4.2669 H       
  63 H63            3.1019     5.5268     1.3041 H       
  64 H64            1.6276     6.5186     1.1990 H       
  65 H65            1.5048     4.7740     1.5298 H       
@<TRIPOS>BOND
   1    1    2 1
   2    1    6 1
   3    1   29 1
   4    1   30 1
   5    2    3 1
   6    2   14 1
   7    2   31 1
   8    3    4 1
   9    3    7 1
  10    3    8 1
  11    4    5 1
  12    4   32 1
  13    4   33 1
  14    5    6 1
  15    5   34 1
  16    5   35 1
  17    6   36 1
  18    6   37 1
  19    7    9 ar
  20    7   13 ar
  21    8   17 1
  22    9   10 ar
  23    9   15 1
  24   10   11 ar
  25   10   38 1
  26   11   12 ar
  27   11   39 1
  28   12   13 ar
  29   12   40 1
  30   13   41 1
  31   14   42 1
  32   14   43 1
  33   14   44 1
  34   15   16 1
  35   15   45 1
  36   15   46 1
  37   16   47 1
  38   16   48 1
  39   16   49 1
  40   17   18 1
  41   17   50 1
  42   17   51 1
  43   18   19 1
  44   18   52 1
  45   18   53 1
  46   19   20 1
  47   19   21 1
  48   20   22 1
  49   20   54 1
  50   20   55 1
  51   21   56 1
  52   21   57 1
  53   21   58 1
  54   22   23 ar
  55   22   27 ar
  56   23   24 ar
  57   23   59 1
  58   24   25 ar
  59   24   28 1
  60   25   26 ar
  61   25   60 1
  62   26   27 ar
  63   26   61 1
  64   27   62 1
  65   28   63 1
  66   28   64 1
  67   28   65 1

#	End of record

