#	Name: ASD08150381
#	Creating user name:	WinNT
#	Creation time:	15. 06. 2019 21:15

#	Modifying user name:	WinNT
#	Modification time:	15. 06. 2019 21:15

#	Program:	/corina/corina34_cracker 3.40 0067  02.08.2006

@<TRIPOS>MOLECULE
ASD08150381
  46   50    0    0    0
SMALL
NO_CHARGES


@<TRIPOS>ATOM
   1 N1             1.0083     3.1158    -1.6832 N.am    
   2 C2             1.4448     2.5022    -2.8002 C.2     
   3 C3             2.6522     1.7745    -2.8014 C.2     
   4 C4             3.3954     1.6823    -1.6693 C.2     
   5 C5             2.9395     2.3270    -0.4923 C.ar    
   6 C6             3.6723     2.2631     0.7084 C.ar    
   7 N7             3.2494     2.8587     1.7926 N.ar    
   8 C8             2.1054     3.5591     1.8269 C.ar    
   9 C9             1.3040     3.6770     0.6647 C.ar    
  10 C10            1.7332     3.0433    -0.5248 C.ar    
  11 C11            0.1132     4.4089     0.7112 C.ar    
  12 C12           -0.2705     5.0123     1.8970 C.ar    
  13 C13            0.5273     4.8914     3.0428 C.ar    
  14 C14            1.6881     4.1831     3.0138 C.ar    
  15 O15            0.7866     2.5768    -3.8238 O.2     
  16 C16           -1.5328     5.7914     1.9547 C.2     
  17 C17           -0.1912     3.8368    -1.7091 C.ar    
  18 C18           -0.1806     5.1953    -1.9987 C.ar    
  19 C19           -1.3657     5.9036    -2.0240 C.ar    
  20 C20           -2.5624     5.2618    -1.7613 C.ar    
  21 C21           -2.5764     3.9097    -1.4727 C.ar    
  22 C22           -1.3949     3.1943    -1.4510 C.ar    
  23 C23           -2.7322     5.4839     1.2831 C.2     
  24 N24           -3.6124     6.4019     1.5832 N.2     
  25 N25           -3.0151     7.3243     2.4509 N.pl3   
  26 C26           -1.7441     6.9324     2.6726 C.2     
  27 C27           -3.6614     8.5078     3.0235 C.3     
  28 C28           -3.8826     3.2144    -1.1871 C.3     
  29 H29            2.9869     1.2885    -3.7059 H       
  30 H30            4.3206     1.1253    -1.6654 H       
  31 H31            4.6005     1.7116     0.7342 H       
  32 H32           -0.5023     4.5031    -0.1712 H       
  33 H33            0.2162     5.3671     3.9612 H       
  34 H34            2.2905     4.1000     3.9063 H       
  35 H35            0.7535     5.6971    -2.2036 H       
  36 H36           -1.3581     6.9599    -2.2487 H       
  37 H37           -3.4879     5.8181    -1.7813 H       
  38 H38           -1.4069     2.1373    -1.2299 H       
  39 H39           -2.8958     4.6371     0.6331 H       
  40 H40           -1.0218     7.4348     3.2990 H       
  41 H41           -4.1297     8.2431     3.9715 H       
  42 H42           -2.9147     9.2840     3.1914 H       
  43 H43           -4.4204     8.8768     2.3338 H       
  44 H44           -4.3031     2.8345    -2.1181 H       
  45 H45           -3.7103     2.3851    -0.5010 H       
  46 H46           -4.5790     3.9209    -0.7354 H       
@<TRIPOS>BOND
   1    1    2 am
   2    1   10 1
   3    1   17 1
   4    2    3 1
   5    2   15 2
   6    3    4 2
   7    3   29 1
   8    4    5 1
   9    4   30 1
  10    5    6 ar
  11    5   10 ar
  12    6    7 ar
  13    6   31 1
  14    7    8 ar
  15    8    9 ar
  16    8   14 ar
  17    9   10 ar
  18    9   11 ar
  19   11   12 ar
  20   11   32 1
  21   12   13 ar
  22   12   16 1
  23   13   14 ar
  24   13   33 1
  25   14   34 1
  26   16   23 1
  27   16   26 2
  28   17   18 ar
  29   17   22 ar
  30   18   19 ar
  31   18   35 1
  32   19   20 ar
  33   19   36 1
  34   20   21 ar
  35   20   37 1
  36   21   22 ar
  37   21   28 1
  38   22   38 1
  39   23   24 2
  40   23   39 1
  41   24   25 1
  42   25   26 1
  43   25   27 1
  44   26   40 1
  45   27   41 1
  46   27   42 1
  47   27   43 1
  48   28   44 1
  49   28   45 1
  50   28   46 1

#	End of record

