#	Name: ASD07300434
#	Creating user name:	WinNT
#	Creation time:	15. 06. 2019 21:09

#	Modifying user name:	WinNT
#	Modification time:	15. 06. 2019 21:09

#	Program:	/corina/corina34_cracker 3.40 0067  02.08.2006

@<TRIPOS>MOLECULE
ASD07300434
  33   35    0    0    0
SMALL
NO_CHARGES


@<TRIPOS>ATOM
   1 C1            -0.0169     1.3941     0.0097 C.ar    
   2 C2             0.0021    -0.0041     0.0020 C.ar    
   3 C3             1.2199    -0.6674    -0.0128 C.ar    
   4 C4             2.3808     0.0923    -0.0194 C.ar    
   5 C5             2.2878     1.4713    -0.0111 C.ar    
   6 N6             1.1161     2.0768     0.0026 N.ar    
   7 C7            -2.1138     0.6623     0.0347 C.2     
   8 N8            -1.3542     1.7734     0.0301 N.am    
   9 N9            -1.3234    -0.4279     0.0124 N.am    
  10 O10           -3.3304     0.6454     0.0517 O.2     
  11 C11           -1.7801    -1.8199     0.0088 C.3     
  12 C12           -1.9252    -2.3127     1.4500 C.3     
  13 C13           -1.8318     3.0929     0.0444 C.ar    
  14 C14           -3.1985     3.3361     0.0644 C.ar    
  15 C15           -3.6687     4.6341     0.0780 C.ar    
  16 C16           -2.7743     5.6967     0.0721 C.ar    
  17 C17           -1.4070     5.4530     0.0526 C.ar    
  18 C18           -0.9374     4.1547     0.0443 C.ar    
  19 N19           -3.2503     7.0119     0.0854 N.pl3   
  20 H20            1.2635    -1.7465    -0.0186 H       
  21 H21            3.3476    -0.3890    -0.0305 H       
  22 H22            3.1908     2.0638    -0.0162 H       
  23 H23           -2.7439    -1.8848    -0.4961 H       
  24 H24           -1.0527    -2.4396    -0.5156 H       
  25 H25           -0.9614    -2.2478     1.9549 H       
  26 H26           -2.6525    -1.6931     1.9744 H       
  27 H27           -2.2649    -3.3484     1.4474 H       
  28 H28           -3.8939     2.5098     0.0690 H       
  29 H29           -4.7319     4.8232     0.0928 H       
  30 H30           -0.7113     6.2790     0.0477 H       
  31 H31            0.1257     3.9652     0.0332 H       
  32 H32           -4.2052     7.1819     0.0988 H       
  33 H33           -2.6256     7.7539     0.0813 H       
@<TRIPOS>BOND
   1    1    2 ar
   2    1    6 ar
   3    1    8 1
   4    2    3 ar
   5    2    9 1
   6    3    4 ar
   7    3   20 1
   8    4    5 ar
   9    4   21 1
  10    5    6 ar
  11    5   22 1
  12    7    8 am
  13    7    9 am
  14    7   10 2
  15    8   13 1
  16    9   11 1
  17   11   12 1
  18   11   23 1
  19   11   24 1
  20   12   25 1
  21   12   26 1
  22   12   27 1
  23   13   14 ar
  24   13   18 ar
  25   14   15 ar
  26   14   28 1
  27   15   16 ar
  28   15   29 1
  29   16   17 ar
  30   16   19 1
  31   17   18 ar
  32   17   30 1
  33   18   31 1
  34   19   32 1
  35   19   33 1

#	End of record

