#	Name: ASD01915984
#	Creating user name:	WinNT
#	Creation time:	15. 06. 2019 20:06

#	Modifying user name:	WinNT
#	Modification time:	15. 06. 2019 20:06

#	Program:	/corina/corina34_cracker 3.40 0067  02.08.2006

@<TRIPOS>MOLECULE
ASD01915984
  42   43    0    0    0
SMALL
NO_CHARGES


@<TRIPOS>ATOM
   1 C1            -0.1993     1.8584     0.6585 C.ar    
   2 C2            -0.3129     0.4926     0.9517 C.ar    
   3 C3             0.8509    -0.2852     1.0323 C.ar    
   4 C4             2.0682     0.3314     0.8181 C.ar    
   5 C5             2.0993     1.6967     0.5308 C.ar    
   6 N6             0.9773     2.4053     0.4617 N.ar    
   7 C7             3.3990     2.3643     0.3006 C.2     
   8 N8             3.4341     3.6468    -0.1125 N.am    
   9 O9             4.4355     1.7564     0.4839 O.2     
  10 C10            4.7170     4.3449    -0.2262 C.3     
  11 C11            5.8518     3.3918     0.1542 C.3     
  12 C12            4.9125     4.8213    -1.6669 C.3     
  13 C13            4.7266     5.5508     0.7154 C.3     
  14 C14           -1.5988    -0.0998     1.1662 C.1     
  15 C15           -2.6531    -0.5854     1.3421 C.1     
  16 C16           -3.9390    -1.1778     1.5566 C.ar    
  17 C17           -4.0443    -2.5401     1.8484 C.ar    
  18 C18           -5.0945    -0.3945     1.4806 C.ar    
  19 C19           -6.3299    -0.9706     1.6887 C.ar    
  20 C20           -6.4291    -2.3213     1.9722 C.ar    
  21 C21           -5.2885    -3.1042     2.0546 C.ar    
  22 C22            2.1893     4.3426    -0.4478 C.3     
  23 F23           -5.3938    -4.4222     2.3318 F       
  24 H24           -1.0895     2.4660     0.5895 H       
  25 H25            0.7970    -1.3403     1.2568 H       
  26 H26            2.9853    -0.2364     0.8726 H       
  27 H27            5.8450     2.5327    -0.5166 H       
  28 H28            6.8063     3.9112     0.0696 H       
  29 H29            5.7125     3.0524     1.1806 H       
  30 H30            4.1041     5.5003    -1.9379 H       
  31 H31            5.8670     5.3407    -1.7515 H       
  32 H32            4.9056     3.9622    -2.3378 H       
  33 H33            4.5874     5.2114     1.7418 H       
  34 H34            5.6811     6.0702     0.6308 H       
  35 H35            3.9182     6.2298     0.4444 H       
  36 H36           -3.1556    -3.1505     1.9123 H       
  37 H37           -5.0196     0.6600     1.2598 H       
  38 H38           -7.2227    -0.3657     1.6304 H       
  39 H39           -7.3996    -2.7667     2.1341 H       
  40 H40            1.7436     4.7481     0.4605 H       
  41 H41            2.4030     5.1555    -1.1418 H       
  42 H42            1.4950     3.6419    -0.9117 H       
@<TRIPOS>BOND
   1    1    2 ar
   2    1    6 ar
   3    1   24 1
   4    2    3 ar
   5    2   14 1
   6    3    4 ar
   7    3   25 1
   8    4    5 ar
   9    4   26 1
  10    5    6 ar
  11    5    7 1
  12    7    8 am
  13    7    9 2
  14    8   10 1
  15    8   22 1
  16   10   11 1
  17   10   12 1
  18   10   13 1
  19   11   27 1
  20   11   28 1
  21   11   29 1
  22   12   30 1
  23   12   31 1
  24   12   32 1
  25   13   33 1
  26   13   34 1
  27   13   35 1
  28   14   15 3
  29   15   16 1
  30   16   17 ar
  31   16   18 ar
  32   17   21 ar
  33   17   36 1
  34   18   19 ar
  35   18   37 1
  36   19   20 ar
  37   19   38 1
  38   20   21 ar
  39   20   39 1
  40   21   23 1
  41   22   40 1
  42   22   41 1
  43   22   42 1

#	End of record

