#	Name: ASD03320006
#	Creating user name:	WinNT
#	Creation time:	15. 06. 2019 20:35

#	Modifying user name:	WinNT
#	Modification time:	15. 06. 2019 20:35

#	Program:	/corina/corina34_cracker 3.40 0067  02.08.2006

@<TRIPOS>MOLECULE
ASD03320006
  61   65    0    0    0
SMALL
NO_CHARGES


@<TRIPOS>ATOM
   1 C1             0.2133     1.3226     2.1352 C.ar    
   2 C2             0.1998     0.0569     1.5785 C.ar    
   3 C3             1.3950    -0.6204     1.4071 C.ar    
   4 C4             2.5769     0.0091     1.8077 C.ar    
   5 C5             2.5062     1.2865     2.3607 C.ar    
   6 N6             1.3451     1.8915     2.5040 N.ar    
   7 C7             3.8849    -0.6713     1.6473 C.ar    
   8 N8             3.9517    -1.8912     1.1196 N.ar    
   9 C9             5.0668    -0.0390     2.0428 C.ar    
  10 C10            6.2632    -0.7126     1.8733 C.ar    
  11 N11            6.2537    -1.9267     1.3459 N.ar    
  12 C12            5.1182    -2.5003     0.9751 C.ar    
  13 N13            5.1521    -3.7722     0.4272 N.pl3   
  14 C14            6.3799    -4.3847     0.1570 C.ar    
  15 C15            6.4659    -5.7702     0.0916 C.ar    
  16 C16            7.5105    -3.6094    -0.0513 C.ar    
  17 C17            8.7325    -4.2251    -0.3209 C.ar    
  18 C18            8.8092    -5.6181    -0.3792 C.ar    
  19 C19            7.6773    -6.3805    -0.1756 C.ar    
  20 C20            5.2346    -6.6103     0.3133 C.3     
  21 C21            9.9424    -3.4057    -0.5447 C.2     
  22 O22            9.8732    -2.1931    -0.4939 O.2     
  23 N23           11.1222    -4.0031    -0.8051 N.am    
  24 C24           12.2422    -3.2292    -1.1249 C.ar    
  25 C25           13.5093    -3.6465    -0.7376 C.ar    
  26 C26           14.6162    -2.8821    -1.0534 C.ar    
  27 C27           14.4666    -1.7014    -1.7548 C.ar    
  28 C28           13.2023    -1.2786    -2.1445 C.ar    
  29 C29           12.0897    -2.0462    -1.8347 C.ar    
  30 N30           13.0516    -0.0796    -2.8561 N.pl3   
  31 C31           14.0455     0.7663    -3.2326 C.2     
  32 N32           13.5150     1.7710    -3.8750 N.2     
  33 C33           12.1848     1.6090    -3.9329 C.2     
  34 C34           11.8739     0.4572    -3.3083 C.2     
  35 C35           11.2077     2.5499    -4.5893 C.3     
  36 F36           15.8872    -4.5493     0.0598 F       
  37 F37           16.7913    -3.5126    -1.7643 F       
  38 C38           15.9895    -3.3372    -0.6313 C.3     
  39 F39           16.5648    -2.3722     0.2023 F       
  40 H40           -0.7168     1.8556     2.2662 H       
  41 H41           -0.7332    -0.3985     1.2808 H       
  42 H42            1.4136    -1.6101     0.9752 H       
  43 H43            3.4115     1.7847     2.6746 H       
  44 H44            5.0467     0.9526     2.4703 H       
  45 H45            7.1950    -0.2528     2.1679 H       
  46 H46            4.3242    -4.2380     0.2310 H       
  47 H47            7.4449    -2.5323    -0.0054 H       
  48 H48            9.7536    -6.0987    -0.5877 H       
  49 H49            7.7388    -7.4578    -0.2208 H       
  50 H50            4.7328    -6.7781    -0.6396 H       
  51 H51            5.5216    -7.5685     0.7465 H       
  52 H52            4.5587    -6.0920     0.9935 H       
  53 H53           11.1943    -4.9698    -0.7706 H       
  54 H54           13.6294    -4.5689    -0.1889 H       
  55 H55           15.3337    -1.1062    -2.0001 H       
  56 H56           11.1057    -1.7194    -2.1367 H       
  57 H57           15.0982     0.6304    -3.0335 H       
  58 H58           10.8858     0.0403    -3.1814 H       
  59 H59           11.0727     2.2640    -5.6324 H       
  60 H60           10.2499     2.4984    -4.0716 H       
  61 H61           11.5938     3.5680    -4.5387 H       
@<TRIPOS>BOND
   1    1    2 ar
   2    1    6 ar
   3    1   40 1
   4    2    3 ar
   5    2   41 1
   6    3    4 ar
   7    3   42 1
   8    4    5 ar
   9    4    7 1
  10    5    6 ar
  11    5   43 1
  12    7    8 ar
  13    7    9 ar
  14    8   12 ar
  15    9   10 ar
  16    9   44 1
  17   10   11 ar
  18   10   45 1
  19   11   12 ar
  20   12   13 1
  21   13   14 1
  22   13   46 1
  23   14   15 ar
  24   14   16 ar
  25   15   20 1
  26   15   19 ar
  27   16   17 ar
  28   16   47 1
  29   17   18 ar
  30   17   21 1
  31   18   19 ar
  32   18   48 1
  33   19   49 1
  34   20   50 1
  35   20   51 1
  36   20   52 1
  37   21   22 2
  38   21   23 am
  39   23   24 1
  40   23   53 1
  41   24   25 ar
  42   24   29 ar
  43   25   26 ar
  44   25   54 1
  45   26   27 ar
  46   26   38 1
  47   27   28 ar
  48   27   55 1
  49   28   29 ar
  50   28   30 1
  51   29   56 1
  52   30   31 1
  53   30   34 1
  54   31   32 2
  55   31   57 1
  56   32   33 1
  57   33   34 2
  58   33   35 1
  59   34   58 1
  60   35   59 1
  61   35   60 1
  62   35   61 1
  63   36   38 1
  64   37   38 1
  65   38   39 1

#	End of record

