#	Name: ASD01918199
#	Creating user name:	WinNT
#	Creation time:	15. 06. 2019 20:11

#	Modifying user name:	WinNT
#	Modification time:	15. 06. 2019 20:11

#	Program:	/corina/corina34_cracker 3.40 0067  02.08.2006

@<TRIPOS>MOLECULE
ASD01918199
  43   45    0    0    0
SMALL
NO_CHARGES


@<TRIPOS>ATOM
   1 N1             0.0400     1.3166     0.1545 N.ar    
   2 C2             0.0656     0.0007     0.1672 C.ar    
   3 C3             1.2666    -0.6876     0.1692 C.ar    
   4 C4             2.4589     0.0221     0.1573 C.ar    
   5 C5             2.4049     1.4050     0.1436 C.ar    
   6 C6             1.1585     2.0348     0.1427 C.ar    
   7 N7             1.0882     3.4004     0.1297 N.2     
   8 N8            -0.0607     3.9871     0.1289 N.2     
   9 C9            -0.1308     5.3486     0.1159 C.ar    
  10 C10           -1.4417     7.3659     0.1082 C.ar    
  11 C11           -1.3762     5.9868     0.1209 C.ar    
  12 C12            1.0425     6.1113     0.1035 C.ar    
  13 C13            0.9697     7.4865     0.0910 C.ar    
  14 C14           -0.2675     8.1203     0.0905 C.ar    
  15 O15           -2.6503     7.9892     0.1125 O.3     
  16 C16           -3.8104     7.1551     0.1303 C.3     
  17 N17           -0.3357     9.5155     0.0777 N.am    
  18 C18            0.6814    10.2352    -0.4361 C.2     
  19 N19            0.5801    11.5762    -0.5259 N.am    
  20 C20            1.6800    12.3350    -0.9459 C.ar    
  21 O21            1.6904     9.6748    -0.8187 O.2     
  22 C22            1.4847    13.5856    -1.5224 C.ar    
  23 C23            2.9672    11.8433    -0.7825 C.ar    
  24 C24            4.0505    12.5943    -1.1973 C.ar    
  25 C25            3.8541    13.8348    -1.7749 C.ar    
  26 C26            2.5732    14.3316    -1.9351 C.ar    
  27 F27            0.2335    14.0705    -1.6792 F       
  28 H28           -0.8636    -0.5498     0.1765 H       
  29 H29            1.2756    -1.7675     0.1804 H       
  30 H30            3.4080    -0.4932     0.1589 H       
  31 H31            3.3136     1.9886     0.1344 H       
  32 H32           -2.2841     5.4019     0.1342 H       
  33 H33            2.0050     5.6215     0.1042 H       
  34 H34            1.8760     8.0739     0.0818 H       
  35 H35           -4.7053     7.7773     0.1320 H       
  36 H36           -3.8130     6.5172    -0.7536 H       
  37 H37           -3.7978     6.5343     1.0263 H       
  38 H38           -1.1151     9.9664     0.4386 H       
  39 H39           -0.2544    12.0158    -0.2997 H       
  40 H40            3.1224    10.8745    -0.3312 H       
  41 H41            5.0524    12.2116    -1.0698 H       
  42 H42            4.7029    14.4191    -2.0979 H       
  43 H43            2.4232    15.3029    -2.3829 H       
@<TRIPOS>BOND
   1    1    2 ar
   2    1    6 ar
   3    2    3 ar
   4    2   28 1
   5    3    4 ar
   6    3   29 1
   7    4    5 ar
   8    4   30 1
   9    5    6 ar
  10    5   31 1
  11    6    7 1
  12    7    8 2
  13    8    9 1
  14    9   12 ar
  15    9   11 ar
  16   10   11 ar
  17   10   14 ar
  18   10   15 1
  19   11   32 1
  20   12   13 ar
  21   12   33 1
  22   13   14 ar
  23   13   34 1
  24   14   17 1
  25   15   16 1
  26   16   35 1
  27   16   36 1
  28   16   37 1
  29   17   18 am
  30   17   38 1
  31   18   19 am
  32   18   21 2
  33   19   20 1
  34   19   39 1
  35   20   23 ar
  36   20   22 ar
  37   22   26 ar
  38   22   27 1
  39   23   24 ar
  40   23   40 1
  41   24   25 ar
  42   24   41 1
  43   25   26 ar
  44   25   42 1
  45   26   43 1

#	End of record

