#	Name: ASD03331399
#	Creating user name:	WinNT
#	Creation time:	15. 06. 2019 20:39

#	Modifying user name:	WinNT
#	Modification time:	15. 06. 2019 20:39

#	Program:	/corina/corina34_cracker 3.40 0067  02.08.2006

@<TRIPOS>MOLECULE
ASD03331399
  57   59    0    0    0
SMALL
NO_CHARGES


@<TRIPOS>ATOM
   1 C1            -0.6383     0.9639     0.4274 C.3     
   2 O2            -0.7158    -0.4537     0.2572 O.3     
   3 C3            -0.1367    -0.9370    -0.9640 C.3     
   4 C4             1.2430    -0.3515    -1.0837 C.2     
   5 C5             1.6818     0.6947    -0.3355 C.2     
   6 C6             0.8171     1.3774     0.6935 C.3     
   7 C7             2.3142    -0.7059    -1.9163 C.2     
   8 N8             3.3091     0.1194    -1.6314 N.2     
   9 N9             2.9528     0.9447    -0.7064 N.pl3   
  10 C10            2.3293    -1.7907    -2.9180 C.2     
  11 O11            1.3416    -2.4804    -3.0821 O.2     
  12 N12            3.4380    -2.0163    -3.6503 N.am    
  13 C13            3.4531    -3.0926    -4.6441 C.3     
  14 C14            2.8656    -2.5796    -5.9604 C.3     
  15 C15            4.8718    -3.5474    -4.8706 C.2     
  16 C16            3.7659     1.9514    -0.1680 C.ar    
  17 C17            4.4813     2.7946    -1.0110 C.ar    
  18 C18            5.2825     3.7873    -0.4759 C.ar    
  19 C19            5.3719     3.9411     0.8949 C.ar    
  20 C20            4.6608     3.1030     1.7362 C.ar    
  21 C21            3.8544     2.1124     1.2079 C.ar    
  22 C22            3.6557    -1.3560    -6.4289 C.3     
  23 C23            2.9525    -3.6793    -7.0205 C.3     
  24 C24            1.4013    -2.1904    -5.7480 C.3     
  25 N25            5.1129    -4.7487    -5.4320 N.am    
  26 O26            5.7967    -2.8324    -4.5476 O.2     
  27 C27            6.4891    -5.2345    -5.5601 C.3     
  28 Cl28           4.7768     3.3005     3.4570 Cl      
  29 C29            6.4837    -6.6121    -6.2257 C.3     
  30 O30            5.9990    -6.4923    -7.5646 O.3     
  31 F31            4.3944     2.6442    -2.3508 F       
  32 H32           -0.9957     1.4574    -0.4763 H       
  33 H33           -1.2598     1.2620     1.2718 H       
  34 H34           -0.0748    -2.0249    -0.9377 H       
  35 H35           -0.7459    -0.6219    -1.8112 H       
  36 H36            0.9169     2.4589     0.6013 H       
  37 H37            1.1140     1.0620     1.6938 H       
  38 H38            4.2260    -1.4660    -3.5193 H       
  39 H39            2.8566    -3.9299    -4.2819 H       
  40 H40            5.8388     4.4426    -1.1298 H       
  41 H41            5.9983     4.7166     1.3104 H       
  42 H42            3.2999     1.4591     1.8653 H       
  43 H43            4.6990    -1.6332    -6.5802 H       
  44 H44            3.2372    -0.9905    -7.3666 H       
  45 H45            3.5938    -0.5725    -5.6736 H       
  46 H46            2.3874    -4.5500    -6.6880 H       
  47 H47            2.5365    -3.3129    -7.9590 H       
  48 H48            3.9955    -3.9585    -7.1699 H       
  49 H49            1.3394    -1.4070    -4.9927 H       
  50 H50            0.9828    -1.8250    -6.6858 H       
  51 H51            0.8384    -3.0621    -5.4142 H       
  52 H52            4.3752    -5.2916    -5.7513 H       
  53 H53            7.0648    -4.5384    -6.1701 H       
  54 H54            6.9410    -5.3106    -4.5711 H       
  55 H55            7.4975    -7.0123    -6.2408 H       
  56 H56            5.8359    -7.2847    -5.6636 H       
  57 H57            5.9683    -7.3292    -8.0482 H       
@<TRIPOS>BOND
   1    1    2 1
   2    1    6 1
   3    1   32 1
   4    1   33 1
   5    2    3 1
   6    3    4 1
   7    3   34 1
   8    3   35 1
   9    4    5 2
  10    4    7 1
  11    5    6 1
  12    5    9 1
  13    6   36 1
  14    6   37 1
  15    7    8 2
  16    7   10 1
  17    8    9 1
  18    9   16 1
  19   10   11 2
  20   10   12 am
  21   12   13 1
  22   12   38 1
  23   13   14 1
  24   13   15 1
  25   13   39 1
  26   14   22 1
  27   14   23 1
  28   14   24 1
  29   15   25 am
  30   15   26 2
  31   16   17 ar
  32   16   21 ar
  33   17   18 ar
  34   17   31 1
  35   18   19 ar
  36   18   40 1
  37   19   20 ar
  38   19   41 1
  39   20   21 ar
  40   20   28 1
  41   21   42 1
  42   22   43 1
  43   22   44 1
  44   22   45 1
  45   23   46 1
  46   23   47 1
  47   23   48 1
  48   24   49 1
  49   24   50 1
  50   24   51 1
  51   25   27 1
  52   25   52 1
  53   27   29 1
  54   27   53 1
  55   27   54 1
  56   29   30 1
  57   29   55 1
  58   29   56 1
  59   30   57 1

#	End of record

