#	Name: ASD05213046
#	Creating user name:	WinNT
#	Creation time:	15. 06. 2019 20:57

#	Modifying user name:	WinNT
#	Modification time:	15. 06. 2019 20:57

#	Program:	/corina/corina34_cracker 3.40 0067  02.08.2006

@<TRIPOS>MOLECULE
ASD05213046
  47   50    0    0    0
SMALL
NO_CHARGES


@<TRIPOS>ATOM
   1 C1            -0.0169     1.3934     0.0097 C.ar    
   2 C2             0.0021    -0.0041     0.0020 C.ar    
   3 C3            -1.1952    -0.6898     0.0097 C.ar    
   4 N4            -2.3454    -0.0438     0.0237 N.ar    
   5 C5            -2.4072     1.2739     0.0313 C.ar    
   6 C6            -1.2575     2.0368     0.0309 C.ar    
   7 C7             1.2456     2.1727     0.0018 C.ar    
   8 C8             1.2077     3.5657     0.0097 C.ar    
   9 C9             2.3852     4.2856     0.0028 C.ar    
  10 C10            3.6015     3.6268    -0.0123 C.ar    
  11 C11            3.6450     2.2443    -0.0202 C.ar    
  12 C12            2.4738     1.5144    -0.0076 C.ar    
  13 C13            4.8838     4.4184    -0.0208 C.3     
  14 N14            5.3128     4.6679     1.3576 N.pl3   
  15 C15            6.1424     3.7685     1.9955 C.2     
  16 C16            4.8609     5.8723     2.0587 C.3     
  17 C17            3.5510     5.5748     2.7912 C.3     
  18 C18            3.0792     6.8326     3.5234 C.3     
  19 N19            6.5945     2.6825     1.4686 N.2     
  20 C20            7.3980     1.9038     2.2206 C.ar    
  21 C21            7.6170     2.4239     3.4995 C.ar    
  22 S22            6.7390     3.9451     3.6398 S.3     
  23 C23            8.0141     0.6813     1.8791 C.ar    
  24 C24            8.8075     0.0256     2.7864 C.ar    
  25 C25            9.0163     0.5525     4.0524 C.ar    
  26 C26            8.4250     1.7446     4.4077 C.ar    
  27 H27            0.9400    -0.5393    -0.0101 H       
  28 H28           -1.1907    -1.7698     0.0039 H       
  29 H29           -3.3705     1.7621     0.0428 H       
  30 H30           -1.3154     3.1153     0.0371 H       
  31 H31            0.2586     4.0810     0.0208 H       
  32 H32            2.3570     5.3652     0.0088 H       
  33 H33            4.5974     1.7351    -0.0324 H       
  34 H34            2.5089     0.4349    -0.0134 H       
  35 H35            5.6554     3.8545    -0.5450 H       
  36 H36            4.7206     5.3691    -0.5283 H       
  37 H37            5.6188     6.1789     2.7796 H       
  38 H38            4.7001     6.6737     1.3376 H       
  39 H39            2.7932     5.2682     2.0703 H       
  40 H40            3.7119     4.7734     3.5123 H       
  41 H41            3.8370     7.1393     4.2443 H       
  42 H42            2.9183     7.6340     2.8023 H       
  43 H43            2.1460     6.6207     4.0453 H       
  44 H44            7.8600     0.2587     0.8973 H       
  45 H45            9.2734    -0.9094     2.5124 H       
  46 H46            9.6420     0.0281     4.7593 H       
  47 H47            8.5887     2.1539     5.3937 H       
@<TRIPOS>BOND
   1    1    2 ar
   2    1    7 1
   3    1    6 ar
   4    2    3 ar
   5    2   27 1
   6    3    4 ar
   7    3   28 1
   8    4    5 ar
   9    5    6 ar
  10    5   29 1
  11    6   30 1
  12    7    8 ar
  13    7   12 ar
  14    8    9 ar
  15    8   31 1
  16    9   10 ar
  17    9   32 1
  18   10   11 ar
  19   10   13 1
  20   11   12 ar
  21   11   33 1
  22   12   34 1
  23   13   14 1
  24   13   35 1
  25   13   36 1
  26   14   15 1
  27   14   16 1
  28   15   19 2
  29   15   22 1
  30   16   17 1
  31   16   37 1
  32   16   38 1
  33   17   18 1
  34   17   39 1
  35   17   40 1
  36   18   41 1
  37   18   42 1
  38   18   43 1
  39   19   20 1
  40   20   21 ar
  41   20   23 ar
  42   21   22 1
  43   21   26 ar
  44   23   24 ar
  45   23   44 1
  46   24   25 ar
  47   24   45 1
  48   25   26 ar
  49   25   46 1
  50   26   47 1

#	End of record

