#	Name: ASD05313155
#	Creating user name:	WinNT
#	Creation time:	15. 06. 2019 20:58

#	Modifying user name:	WinNT
#	Modification time:	15. 06. 2019 20:58

#	Program:	/corina/corina34_cracker 3.40 0067  02.08.2006

@<TRIPOS>MOLECULE
ASD05313155
  40   43    0    0    0
SMALL
NO_CHARGES


@<TRIPOS>ATOM
   1 C1            -0.3781     0.2339     2.8332 C.ar    
   2 C2            -0.5522    -0.4466     1.6216 C.ar    
   3 C3             0.3861    -0.2924     0.6009 C.ar    
   4 C4             1.4788     0.5279     0.7888 C.ar    
   5 C5             1.6490     1.2001     1.9893 C.ar    
   6 C6             0.7234     1.0543     3.0087 C.ar    
   7 O7            -1.2894     0.0941     3.8303 O.3     
   8 F8             2.7227     2.0009     2.1653 F       
   9 C9            -3.0172    -3.0035     0.9274 C.2     
  10 C10           -3.4635    -4.3636     0.4470 C.3     
  11 N11           -1.7183    -2.5852     0.9111 N.pl3   
  12 N12           -2.3131    -4.9724    -0.2476 N.am    
  13 C13           -0.9845    -4.8497     0.3709 C.3     
  14 C14           -0.5855    -3.3700     0.4241 C.3     
  15 N15           -2.9782    -1.0401     1.7175 N.2     
  16 N16           -3.7342    -2.0404     1.4195 N.2     
  17 C17           -1.7248    -1.3249     1.4254 C.2     
  18 C18           -2.4754    -5.6235    -1.4165 C.2     
  19 O19           -1.5052    -6.0326    -2.0241 O.2     
  20 C20           -3.8321    -5.8399    -1.9592 C.ar    
  21 C21           -4.0921    -5.6055    -3.3121 C.ar    
  22 C22           -5.3643    -5.8107    -3.8130 C.ar    
  23 C23           -6.3789    -6.2473    -2.9749 C.ar    
  24 C24           -6.1247    -6.4801    -1.6336 C.ar    
  25 C25           -4.8585    -6.2850    -1.1237 C.ar    
  26 F26           -5.6192    -5.5851    -5.1204 F       
  27 Cl27          -7.9745    -6.5027    -3.6094 Cl      
  28 Cl28          -2.8215    -5.0577    -4.3605 Cl      
  29 H29            0.2571    -0.8150    -0.3353 H       
  30 H30            2.2047     0.6467    -0.0020 H       
  31 H31            0.8608     1.5810     3.9415 H       
  32 H32           -1.0980    -0.6324     4.4391 H       
  33 H33           -3.7546    -4.9813     1.2966 H       
  34 H34           -4.3013    -4.2583    -0.2423 H       
  35 H35           -1.0151    -5.2549     1.3823 H       
  36 H36           -0.2550    -5.4022    -0.2213 H       
  37 H37           -0.3098    -3.0309    -0.5745 H       
  38 H38            0.2613    -3.2451     1.0990 H       
  39 H39           -6.9195    -6.8194    -0.9859 H       
  40 H40           -4.6620    -6.4716    -0.0783 H       
@<TRIPOS>BOND
   1    1    2 ar
   2    1    6 ar
   3    1    7 1
   4    2    3 ar
   5    2   17 1
   6    3    4 ar
   7    3   29 1
   8    4    5 ar
   9    4   30 1
  10    5    6 ar
  11    5    8 1
  12    6   31 1
  13    7   32 1
  14    9   10 1
  15    9   11 1
  16    9   16 2
  17   10   12 1
  18   10   33 1
  19   10   34 1
  20   11   14 1
  21   11   17 1
  22   12   13 1
  23   12   18 am
  24   13   14 1
  25   13   35 1
  26   13   36 1
  27   14   37 1
  28   14   38 1
  29   15   16 1
  30   15   17 2
  31   18   19 2
  32   18   20 1
  33   20   21 ar
  34   20   25 ar
  35   21   22 ar
  36   21   28 1
  37   22   23 ar
  38   22   26 1
  39   23   24 ar
  40   23   27 1
  41   24   25 ar
  42   24   39 1
  43   25   40 1

#	End of record

