#	Name: ASD03331787
#	Creating user name:	WinNT
#	Creation time:	15. 06. 2019 20:39

#	Modifying user name:	WinNT
#	Modification time:	15. 06. 2019 20:39

#	Program:	/corina/corina34_cracker 3.40 0067  02.08.2006

@<TRIPOS>MOLECULE
ASD03331787
  58   61    0    0    0
SMALL
NO_CHARGES


@<TRIPOS>ATOM
   1 C1            -0.0187     1.5258     0.0104 C.3     
   2 C2             0.0021    -0.0041     0.0020 C.3     
   3 C3             0.7309    -0.5033     1.2229 C.2     
   4 C4             2.0643    -0.7472     1.3161 C.2     
   5 N5             2.3556    -1.1923     2.5910 N.pl3   
   6 H6             3.2362    -1.4354     2.9169 H       
   7 C7             1.1916    -1.2332     3.3224 C.ar    
   8 C8             0.9040    -1.5963     4.6349 C.ar    
   9 C9            -0.3922    -1.5308     5.0953 C.ar    
  10 C10           -1.4194    -1.1050     4.2613 C.ar    
  11 Cl11          -3.0447    -1.0317     4.8669 Cl      
  12 C12           -1.1614    -0.7432     2.9700 C.ar    
  13 C13            0.1500    -0.7964     2.4804 C.ar    
  14 C14            3.0417    -0.5666     0.2322 C.2     
  15 O15            2.6752    -0.1678    -0.8571 O.2     
  16 N16            4.3434    -0.8429     0.4457 N.am    
  17 C17            5.3171    -0.6630    -0.6341 C.3     
  18 C18            6.7113    -1.0442    -0.1323 C.3     
  19 H19            6.9447    -0.4691     0.7637 H       
  20 O20            6.7418    -2.4393     0.1757 O.3     
  21 C21            7.7296    -0.7435    -1.2018 C.ar    
  22 C22            7.9010    -1.6203    -2.2573 C.ar    
  23 C23            8.8333    -1.3478    -3.2390 C.ar    
  24 C24            9.5993    -0.1913    -3.1653 C.ar    
  25 C25            9.4246     0.6873    -2.1037 C.ar    
  26 C26            8.4866     0.4115    -1.1283 C.ar    
  27 N27           10.5435     0.0871    -4.1562 N.3     
  28 C28            9.9221     0.0991    -5.4867 C.3     
  29 C29           11.0051     0.2618    -6.5556 C.3     
  30 C30           11.7619     1.5707    -6.3134 C.3     
  31 C31           12.3585     1.5527    -4.9033 C.3     
  32 C32           11.2362     1.3526    -3.8823 C.3     
  33 H33            1.0039     1.9031     0.0027 H       
  34 H34           -0.5459     1.8868    -0.8726 H       
  35 H35           -0.5289     1.8773     0.9072 H       
  36 H36           -1.0205    -0.3814     0.0098 H       
  37 H37            0.5123    -0.3556    -0.8948 H       
  38 H38            1.6953    -1.9288     5.2905 H       
  39 H39           -0.6128    -1.8135     6.1140 H       
  40 H40           -1.9656    -0.4132     2.3291 H       
  41 H41            4.6356    -1.1609     1.3142 H       
  42 H42            5.0473    -1.3001    -1.4764 H       
  43 H43            5.3179     0.3794    -0.9526 H       
  44 H44            6.5428    -3.0127    -0.5771 H       
  45 H45            7.3053    -2.5194    -2.3137 H       
  46 H46            8.9669    -2.0332    -4.0629 H       
  47 H47           10.0189     1.5871    -2.0432 H       
  48 H48            8.3471     1.0964    -0.3050 H       
  49 H49            9.3908    -0.8389    -5.6478 H       
  50 H50            9.2197     0.9300    -5.5520 H       
  51 H51           11.7001    -0.5761    -6.4999 H       
  52 H52           10.5421     0.2863    -7.5421 H       
  53 H53           12.5625     1.6695    -7.0464 H       
  54 H54           11.0747     2.4115    -6.4075 H       
  55 H55           13.0748     0.7352    -4.8216 H       
  56 H56           12.8624     2.4996    -4.7093 H       
  57 H57           10.5276     2.1777    -3.9552 H       
  58 H58           11.6594     1.3251    -2.8782 H       
@<TRIPOS>BOND
   1    1    2 1
   2    1   33 1
   3    1   34 1
   4    1   35 1
   5    2    3 1
   6    2   36 1
   7    2   37 1
   8    3   13 1
   9    3    4 2
  10    4    5 1
  11    4   14 1
  12    5    6 1
  13    5    7 1
  14    7   13 ar
  15    7    8 ar
  16    8    9 ar
  17    8   38 1
  18    9   10 ar
  19    9   39 1
  20   10   11 1
  21   10   12 ar
  22   12   13 ar
  23   12   40 1
  24   14   15 2
  25   14   16 am
  26   16   17 1
  27   16   41 1
  28   17   18 1
  29   17   42 1
  30   17   43 1
  31   18   19 1
  32   18   20 1
  33   18   21 1
  34   20   44 1
  35   21   26 ar
  36   21   22 ar
  37   22   23 ar
  38   22   45 1
  39   23   24 ar
  40   23   46 1
  41   24   25 ar
  42   24   27 1
  43   25   26 ar
  44   25   47 1
  45   26   48 1
  46   27   32 1
  47   27   28 1
  48   28   29 1
  49   28   49 1
  50   28   50 1
  51   29   30 1
  52   29   51 1
  53   29   52 1
  54   30   31 1
  55   30   53 1
  56   30   54 1
  57   31   32 1
  58   31   55 1
  59   31   56 1
  60   32   57 1
  61   32   58 1

#	End of record

