#	Name: ASD04882126
#	Creating user name:	WinNT
#	Creation time:	15. 06. 2019 20:54

#	Modifying user name:	WinNT
#	Modification time:	15. 06. 2019 20:54

#	Program:	/corina/corina34_cracker 3.40 0067  02.08.2006

@<TRIPOS>MOLECULE
ASD04882126
  78   82    0    0    0
SMALL
NO_CHARGES


@<TRIPOS>ATOM
   1 C1             0.1587     2.1675    -0.5466 C.3     
   2 C2            -0.3330     0.7310    -0.2620 C.3     
   3 C3            -0.3822    -0.0661    -1.5401 C.2     
   4 O4             0.5153    -0.8364    -1.8094 O.2     
   5 N5            -1.4234     0.0769    -2.3837 N.am    
   6 C6            -1.4178    -0.5805    -3.6218 C.ar    
   7 C7            -2.6173    -1.0324    -4.1793 C.ar    
   8 C8            -2.6133    -1.6840    -5.4070 C.ar    
   9 C9            -1.4278    -1.8872    -6.0785 C.ar    
  10 C10           -0.2251    -1.4384    -5.5265 C.ar    
  11 C11           -0.2273    -0.7773    -4.2946 C.ar    
  12 N12           -3.8178    -0.8299    -3.5036 N.3     
  13 C13           -3.8593    -1.6094    -2.2585 C.3     
  14 C14           -5.1567    -1.2988    -1.5084 C.3     
  15 N15           -6.3051    -1.6213    -2.3668 N.3     
  16 C16           -6.2636    -0.8418    -3.6119 C.3     
  17 C17           -4.9662    -1.1524    -4.3620 C.3     
  18 C18           -7.5093    -1.4182    -1.6890 C.ar    
  19 C19           -7.8453    -2.2254    -0.6092 C.ar    
  20 C20           -9.8948    -1.0155    -0.3459 C.ar    
  21 C21           -8.3710    -0.4051    -2.0892 C.ar    
  22 C22           -9.0364    -2.0215     0.0589 C.ar    
  23 C23           -9.5609    -0.2067    -1.4164 C.ar    
  24 C24           -6.9111    -3.3225    -0.1681 C.3     
  25 C25            1.0445    -1.6565    -6.2455 C.2     
  26 N26            1.0449    -2.2891    -7.4357 N.am    
  27 O27            2.0906    -1.2656    -5.7645 O.2     
  28 C28            2.3056    -2.5057    -8.1497 C.3     
  29 C29            2.0282    -3.2397    -9.4632 C.3     
  30 C30            3.3449    -3.4659   -10.2088 C.3     
  31 N31            3.0793    -4.1687   -11.4665 N.am    
  32 N32            0.6541     0.1544     0.6584 N.am    
  33 C33            1.7952     0.8648     0.6583 C.2     
  34 C34            1.6781     2.0372    -0.2905 C.3     
  35 C35            2.8165    -3.5589   -12.6353 C.2     
  36 C36            3.0723    -5.6289   -11.6136 C.3     
  37 C37            2.3370    -5.9056   -12.9438 C.3     
  38 C38            2.5828    -4.5888   -13.7184 C.3     
  39 O39            2.7758     0.6042     1.3227 O.2     
  40 O40            2.7724    -2.3578   -12.7976 O.2     
  41 H41           -0.0398     2.4502    -1.5804 H       
  42 H42           -0.2938     2.8787     0.1445 H       
  43 H43           -1.3175     0.7548     0.2051 H       
  44 H44           -2.1768     0.6347    -2.1343 H       
  45 H45           -3.5416    -2.0320    -5.8354 H       
  46 H46           -1.4278    -2.3941    -7.0321 H       
  47 H47            0.7002    -0.4253    -3.8677 H       
  48 H48           -3.8210    -2.6730    -2.4939 H       
  49 H49           -3.0060    -1.3437    -1.6346 H       
  50 H50           -5.2031    -1.8976    -0.5988 H       
  51 H51           -5.1824    -0.2404    -1.2491 H       
  52 H52           -7.1169    -1.1075    -4.2358 H       
  53 H53           -6.3018     0.2218    -3.3765 H       
  54 H54           -4.9198    -0.5536    -5.2717 H       
  55 H55           -4.9405    -2.2108    -4.6213 H       
  56 H56          -10.8259    -0.8584     0.1782 H       
  57 H57           -8.1108     0.2270    -2.9254 H       
  58 H58           -9.2981    -2.6487     0.8983 H       
  59 H59          -10.2335     0.5780    -1.7300 H       
  60 H60           -6.2654    -2.9517     0.6280 H       
  61 H61           -7.4919    -4.1684     0.1996 H       
  62 H62           -6.3001    -3.6409    -1.0127 H       
  63 H63            0.2104    -2.6009    -7.8194 H       
  64 H64            2.7725    -1.5440    -8.3624 H       
  65 H65            2.9743    -3.1056    -7.5324 H       
  66 H66            1.5613    -4.2013    -9.2504 H       
  67 H67            1.3595    -2.6397   -10.0804 H       
  68 H68            3.8118    -2.5042   -10.4216 H       
  69 H69            4.0136    -4.0658    -9.5916 H       
  70 H70            0.5026    -0.6378     1.1973 H       
  71 H71            2.2053     1.8288    -1.2214 H       
  72 H72            2.0658     2.9440     0.1738 H       
  73 H73            4.0930    -6.0082   -11.6609 H       
  74 H74            2.5362    -6.0890   -10.7835 H       
  75 H75            2.7815    -6.7526   -13.4664 H       
  76 H76            1.2726    -6.0685   -12.7745 H       
  77 H77            1.7071    -4.3263   -14.3121 H       
  78 H78            3.4631    -4.6792   -14.3548 H       
@<TRIPOS>BOND
   1    1    2 1
   2    1   34 1
   3    1   41 1
   4    1   42 1
   5    2    3 1
   6    2   32 1
   7    2   43 1
   8    3    4 2
   9    3    5 am
  10    5    6 1
  11    5   44 1
  12    6    7 ar
  13    6   11 ar
  14    7    8 ar
  15    7   12 1
  16    8    9 ar
  17    8   45 1
  18    9   10 ar
  19    9   46 1
  20   10   11 ar
  21   10   25 1
  22   11   47 1
  23   12   13 1
  24   12   17 1
  25   13   14 1
  26   13   48 1
  27   13   49 1
  28   14   15 1
  29   14   50 1
  30   14   51 1
  31   15   16 1
  32   15   18 1
  33   16   17 1
  34   16   52 1
  35   16   53 1
  36   17   54 1
  37   17   55 1
  38   18   19 ar
  39   18   21 ar
  40   19   22 ar
  41   19   24 1
  42   20   22 ar
  43   20   23 ar
  44   20   56 1
  45   21   23 ar
  46   21   57 1
  47   22   58 1
  48   23   59 1
  49   24   60 1
  50   24   61 1
  51   24   62 1
  52   25   26 am
  53   25   27 2
  54   26   28 1
  55   26   63 1
  56   28   29 1
  57   28   64 1
  58   28   65 1
  59   29   30 1
  60   29   66 1
  61   29   67 1
  62   30   31 1
  63   30   68 1
  64   30   69 1
  65   31   35 am
  66   31   36 1
  67   32   33 am
  68   32   70 1
  69   33   34 1
  70   33   39 2
  71   34   71 1
  72   34   72 1
  73   35   40 2
  74   35   38 1
  75   36   37 1
  76   36   73 1
  77   36   74 1
  78   37   38 1
  79   37   75 1
  80   37   76 1
  81   38   77 1
  82   38   78 1

#	End of record

