#	Name: ASD00843415
#	Creating user name:	WinNT
#	Creation time:	15. 06. 2019 18:46

#	Modifying user name:	WinNT
#	Modification time:	15. 06. 2019 18:46

#	Program:	/corina/corina34_cracker 3.40 0067  02.08.2006

@<TRIPOS>MOLECULE
ASD00843415
  96  101    0    0    0
SMALL
NO_CHARGES


@<TRIPOS>ATOM
   1 F1             5.5838    -2.7423    -1.8766 F       
   2 N2             0.8138     0.9541    -0.4818 N.ar    
   3 C3             0.9765    -0.3429    -0.6826 C.ar    
   4 C4             0.8018    -1.2475     0.3572 C.ar    
   5 C5             0.4542    -0.7741     1.6102 C.ar    
   6 C6             0.2929     0.5944     1.7796 C.ar    
   7 C7             0.4826     1.4354     0.7015 C.ar    
   8 C8             0.9877    -2.7246     0.1236 C.3     
   9 C9             0.6051    -3.5094     1.3603 C.2     
  10 C10            0.1616    -3.1838    -1.0796 C.3     
  11 C11           -1.2786    -2.7871    -0.8808 C.2     
  12 N12           -2.2148    -3.1821    -1.7663 N.am    
  13 O13           -1.5953    -2.1124     0.0760 O.2     
  14 C14           -3.6055    -2.7170    -1.6525 C.3     
  15 C15           -4.0437    -2.1561    -3.0096 C.3     
  16 N16           -3.8093    -3.1648    -4.0515 N.3     
  17 C17           -2.3792    -3.4748    -4.1809 C.3     
  18 C18           -1.8715    -4.0849    -2.8754 C.3     
  19 C19           -4.3730    -2.7338    -5.3377 C.3     
  20 C20           -4.0029    -3.7474    -6.4240 C.3     
  21 C21           -4.6435    -3.3255    -7.7483 C.3     
  22 N22           -6.1020    -3.2618    -7.5896 N.3     
  23 C23           -6.4836    -2.2609    -6.5851 C.3     
  24 C24           -5.8979    -2.6511    -5.2261 C.3     
  25 C25           -6.7603    -2.9947    -8.8754 C.3     
  26 O26           -0.4885    -3.5408     1.8838 O.2     
  27 N27            1.7044    -4.1654     1.7686 N.am    
  28 C28            2.4500    -3.0485    -0.0800 C.ar    
  29 C29            2.8045    -3.9165     0.9452 C.ar    
  30 C30            3.3730    -2.6548    -1.0224 C.ar    
  31 C31            4.6744    -3.1263    -0.9542 C.ar    
  32 C32            5.0398    -3.9926     0.0637 C.ar    
  33 C33            4.1139    -4.3874     1.0090 C.ar    
  34 Cl34           6.6695    -4.5843     0.1510 Cl      
  35 C35            1.3392    -6.7787     2.5505 C.ar    
  36 C36            0.0735    -7.0432     2.0483 C.ar    
  37 C37            2.2795    -7.7888     2.6174 C.ar    
  38 C38            1.9601    -9.0620     2.1838 C.ar    
  39 C39            0.6990    -9.3282     1.6827 C.ar    
  40 C40           -0.2448    -8.3220     1.6141 C.ar    
  41 H41            0.4518   -10.3237     1.3446 H       
  42 O42           -0.8533    -6.0515     1.9819 O.3     
  43 C43           -2.1355    -6.3961     1.4535 C.3     
  44 C44           -3.0377    -5.1605     1.4576 C.3     
  45 C45           -8.2712    -3.1814    -8.7232 C.3     
  46 C46           -8.9568    -2.9033   -10.0624 C.3     
  47 S47            1.7497    -5.1543     3.0961 S.o2    
  48 O48            3.1068    -5.2025     3.5144 O.2     
  49 O49            0.6892    -4.7360     3.9444 O.2     
  50 O50            1.3168    -0.7944    -1.9159 O.3     
  51 C51            1.4193     0.1786    -2.9574 C.3     
  52 C52            1.9131    -0.4960    -4.2388 C.3     
  53 F53            3.1265    -1.1450    -3.9864 F       
  54 F54            0.9650    -1.4307    -4.6689 F       
  55 H55            0.3114    -1.4537     2.4373 H       
  56 H56            0.0216     0.9966     2.7445 H       
  57 H57            0.3587     2.5008     0.8281 H       
  58 H58            0.5461    -2.7142    -1.9849 H       
  59 H59            0.2301    -4.2674    -1.1751 H       
  60 H60           -4.2494    -3.5520    -1.3762 H       
  61 H61           -3.6694    -1.9355    -0.8954 H       
  62 H62           -5.1046    -1.9083    -2.9753 H       
  63 H63           -3.4673    -1.2590    -3.2356 H       
  64 H64           -2.2330    -4.1834    -4.9962 H       
  65 H65           -1.8261    -2.5593    -4.3906 H       
  66 H66           -0.7899    -4.2104    -2.9262 H       
  67 H67           -2.3479    -5.0519    -2.7135 H       
  68 H68           -3.9725    -1.7549    -5.6013 H       
  69 H69           -2.9193    -3.7795    -6.5379 H       
  70 H70           -4.3689    -4.7343    -6.1408 H       
  71 H71           -4.2665    -2.3446    -8.0378 H       
  72 H72           -4.3936    -4.0529    -8.5206 H       
  73 H73           -6.0980    -1.2850    -6.8801 H       
  74 H74           -7.5702    -2.2151    -6.5126 H       
  75 H75           -6.2938    -3.6207    -4.9241 H       
  76 H76           -6.1682    -1.8998    -4.4841 H       
  77 H77           -6.5500    -1.9712    -9.1855 H       
  78 H78           -6.3825    -3.6872    -9.6277 H       
  79 H79            3.0832    -1.9797    -1.8141 H       
  80 H80            4.4057    -5.0628     1.7996 H       
  81 H81            3.2651    -7.5834     3.0084 H       
  82 H82            2.6967    -9.8500     2.2362 H       
  83 H83           -1.2297    -8.5306     1.2233 H       
  84 H84           -2.0219    -6.7596     0.4322 H       
  85 H85           -2.5844    -7.1758     2.0688 H       
  86 H86           -3.1514    -4.7969     2.4789 H       
  87 H87           -2.5888    -4.3808     0.8423 H       
  88 H88           -4.0158    -5.4234     1.0546 H       
  89 H89           -8.4814    -4.2050    -8.4131 H       
  90 H90           -8.6489    -2.4890    -7.9709 H       
  91 H91           -8.7466    -1.8797   -10.3726 H       
  92 H92           -8.5791    -3.5957   -10.8147 H       
  93 H93          -10.0332    -3.0363    -9.9540 H       
  94 H94            0.4408     0.6247    -3.1355 H       
  95 H95            2.1242     0.9554    -2.6610 H       
  96 H96            2.0581     0.2571    -5.0133 H       
@<TRIPOS>BOND
   1    1   31 1
   2    2    3 ar
   3    2    7 ar
   4    3    4 ar
   5    3   50 1
   6    4    5 ar
   7    4    8 1
   8    5    6 ar
   9    5   55 1
  10    6    7 ar
  11    6   56 1
  12    7   57 1
  13    8    9 1
  14    8   10 1
  15    8   28 1
  16    9   26 2
  17    9   27 am
  18   10   11 1
  19   10   58 1
  20   10   59 1
  21   11   12 am
  22   11   13 2
  23   12   14 1
  24   12   18 1
  25   14   15 1
  26   14   60 1
  27   14   61 1
  28   15   16 1
  29   15   62 1
  30   15   63 1
  31   16   17 1
  32   16   19 1
  33   17   18 1
  34   17   64 1
  35   17   65 1
  36   18   66 1
  37   18   67 1
  38   19   20 1
  39   19   24 1
  40   19   68 1
  41   20   21 1
  42   20   69 1
  43   20   70 1
  44   21   22 1
  45   21   71 1
  46   21   72 1
  47   22   23 1
  48   22   25 1
  49   23   24 1
  50   23   73 1
  51   23   74 1
  52   24   75 1
  53   24   76 1
  54   25   45 1
  55   25   77 1
  56   25   78 1
  57   27   47 am
  58   27   29 1
  59   28   29 ar
  60   28   30 ar
  61   29   33 ar
  62   30   31 ar
  63   30   79 1
  64   31   32 ar
  65   32   33 ar
  66   32   34 1
  67   33   80 1
  68   35   36 ar
  69   35   37 ar
  70   35   47 1
  71   36   42 1
  72   36   40 ar
  73   37   38 ar
  74   37   81 1
  75   38   39 ar
  76   38   82 1
  77   39   40 ar
  78   39   41 1
  79   40   83 1
  80   42   43 1
  81   43   44 1
  82   43   84 1
  83   43   85 1
  84   44   86 1
  85   44   87 1
  86   44   88 1
  87   45   46 1
  88   45   89 1
  89   45   90 1
  90   46   91 1
  91   46   92 1
  92   46   93 1
  93   47   48 2
  94   47   49 2
  95   50   51 1
  96   51   52 1
  97   51   94 1
  98   51   95 1
  99   52   53 1
 100   52   54 1
 101   52   96 1

#	End of record

