#	Name: ASD03331828
#	Creating user name:	WinNT
#	Creation time:	15. 06. 2019 20:39

#	Modifying user name:	WinNT
#	Modification time:	15. 06. 2019 20:39

#	Program:	/corina/corina34_cracker 3.40 0067  02.08.2006

@<TRIPOS>MOLECULE
ASD03331828
  44   47    0    0    0
SMALL
NO_CHARGES


@<TRIPOS>ATOM
   1 C1             0.4386     1.6403    -0.9567 C.ar    
   2 C2             0.4236     0.2634    -0.9741 C.ar    
   3 C3             1.2422    -0.4587    -0.1148 C.ar    
   4 C4             2.0801     0.1882     0.7672 C.ar    
   5 C5             1.2835     2.3113    -0.0680 C.ar    
   6 C6             1.5455     3.7228     0.2083 C.2     
   7 C7             2.1122     1.5779     0.8026 C.ar    
   8 N8             2.8266     2.4860     1.5539 N.pl3   
   9 C9             2.4800     3.7666     1.1900 C.2     
  10 C10            0.8999     4.9041    -0.4689 C.3     
  11 C11            1.5472     5.1293    -1.8110 C.ar    
  12 C12            2.6230     6.5877    -3.3758 C.ar    
  13 C13            2.7352     5.5422    -4.2731 C.ar    
  14 C14            2.2476     4.2918    -3.9419 C.ar    
  15 C15            1.6538     4.0853    -2.7108 C.ar    
  16 C16            2.0292     6.3812    -2.1446 C.ar    
  17 C17           -0.5925     4.6283    -0.6623 C.3     
  18 N18           -1.1808     4.2087     0.6122 N.pl3   
  19 O19           -2.2438     4.6787     0.9763 O.2     
  20 O20           -0.6067     3.3900     1.3076 O.2     
  21 C21            3.0399     5.0019     1.7798 C.ar    
  22 Cl22          -0.6244    -0.5746    -2.0755 Cl      
  23 C23            3.2264     6.1349     0.9868 C.ar    
  24 C24            3.3787     5.0412     3.1330 C.ar    
  25 C25            3.9002     6.1968     3.6772 C.ar    
  26 C26            4.0875     7.3150     2.8844 C.ar    
  27 C27            3.7488     7.2843     1.5433 C.ar    
  28 H28           -0.1957     2.1987    -1.6291 H       
  29 H29            1.2213    -1.5382    -0.1381 H       
  30 H30            2.7114    -0.3839     1.4309 H       
  31 H31            3.4763     2.2566     2.2367 H       
  32 H32            1.0280     5.7923     0.1498 H       
  33 H33            3.0040     7.5646    -3.6345 H       
  34 H34            3.1991     5.7035    -5.2350 H       
  35 H35            2.3352     3.4749    -4.6430 H       
  36 H36            1.2736     3.1082    -2.4517 H       
  37 H37            1.9416     7.1980    -1.4436 H       
  38 H38           -1.0876     5.5350    -1.0099 H       
  39 H39           -0.7231     3.8371    -1.4006 H       
  40 H40            2.9627     6.1121    -0.0602 H       
  41 H41            3.2326     4.1690     3.7530 H       
  42 H42            4.1624     6.2286     4.7244 H       
  43 H43            4.4957     8.2173     3.3152 H       
  44 H44            3.8939     8.1617     0.9306 H       
@<TRIPOS>BOND
   1    1    2 ar
   2    1    5 ar
   3    1   28 1
   4    2    3 ar
   5    2   22 1
   6    3    4 ar
   7    3   29 1
   8    4    7 ar
   9    4   30 1
  10    5    7 ar
  11    5    6 1
  12    6    9 2
  13    6   10 1
  14    7    8 1
  15    8    9 1
  16    8   31 1
  17    9   21 1
  18   10   11 1
  19   10   17 1
  20   10   32 1
  21   11   16 ar
  22   11   15 ar
  23   12   13 ar
  24   12   16 ar
  25   12   33 1
  26   13   14 ar
  27   13   34 1
  28   14   15 ar
  29   14   35 1
  30   15   36 1
  31   16   37 1
  32   17   18 1
  33   17   38 1
  34   17   39 1
  35   18   19 2
  36   18   20 2
  37   21   24 ar
  38   21   23 ar
  39   23   27 ar
  40   23   40 1
  41   24   25 ar
  42   24   41 1
  43   25   26 ar
  44   25   42 1
  45   26   27 ar
  46   26   43 1
  47   27   44 1

#	End of record

