#	Name: ASD01920046
#	Creating user name:	WinNT
#	Creation time:	15. 06. 2019 20:11

#	Modifying user name:	WinNT
#	Modification time:	15. 06. 2019 20:11

#	Program:	/corina/corina34_cracker 3.40 0067  02.08.2006

@<TRIPOS>MOLECULE
ASD01920046
  55   57    0    0    0
SMALL
NO_CHARGES


@<TRIPOS>ATOM
   1 N1            -0.0811     1.4261    -0.5935 N.pl3   
   2 C2            -0.0726     0.0693    -0.7660 C.2     
   3 C3            -1.3237    -0.3999    -0.6299 C.2     
   4 C4            -2.1760     0.7641    -0.3499 C.2     
   5 C5            -1.3320     1.8583    -0.3377 C.2     
   6 C6             1.1463    -0.7659    -1.0622 C.3     
   7 C7            -1.7408     3.2877    -0.0912 C.3     
   8 C8             1.0478     2.2471    -0.6662 C.ar    
   9 C9            -3.6230     0.7639    -0.1247 C.2     
  10 O10           -4.2027     1.8066     0.0970 O.2     
  11 C11           -4.3921    -0.5314    -0.1683 C.3     
  12 O12           -5.7754    -0.2725     0.0797 O.3     
  13 C13           -6.6141    -1.3427     0.0754 C.ar    
  14 C14           -7.9695    -1.1622     0.3091 C.ar    
  15 C15            1.7305     2.3826    -1.8703 C.ar    
  16 C16            2.8430     3.1905    -1.9458 C.ar    
  17 C17            3.2856     3.8752    -0.8105 C.ar    
  18 C18            2.5966     3.7369     0.3977 C.ar    
  19 C19            1.4821     2.9309     0.4642 C.ar    
  20 C20            4.4774     4.7413    -0.8871 C.2     
  21 O21            5.0754     4.8602    -1.9380 O.2     
  22 O22            4.9026     5.4006     0.2083 O.3     
  23 C23            6.0818     6.2348     0.0594 C.3     
  24 C24           -8.8219    -2.2486     0.3048 C.ar    
  25 C25           -8.3220    -3.5219     0.0665 C.ar    
  26 C26           -6.9653    -3.7018    -0.1674 C.ar    
  27 C27           -6.1149    -2.6138    -0.1684 C.ar    
  28 N28           -9.1862    -4.6247     0.0625 N.am    
  29 C29          -10.4388    -4.4975    -0.4184 C.2     
  30 O30          -10.8463    -3.4102    -0.7691 O.2     
  31 C31          -11.3332    -5.7061    -0.5203 C.3     
  32 H32           -1.6407    -1.4291    -0.7105 H       
  33 H33            1.5978    -1.0944    -0.1261 H       
  34 H34            0.8560    -1.6363    -1.6507 H       
  35 H35            1.8665    -0.1712    -1.6240 H       
  36 H36           -1.6860     3.5023     0.9761 H       
  37 H37           -1.0697     3.9557    -0.6311 H       
  38 H38           -2.7623     3.4388    -0.4403 H       
  39 H39           -4.2785    -0.9885    -1.1512 H       
  40 H40           -4.0068    -1.2085     0.5941 H       
  41 H41           -8.3582    -0.1718     0.4949 H       
  42 H42            1.3879     1.8532    -2.7471 H       
  43 H43            3.3731     3.2947    -2.8809 H       
  44 H44            2.9359     4.2641     1.2770 H       
  45 H45            0.9489     2.8238     1.3973 H       
  46 H46            6.9241     5.6199    -0.2578 H       
  47 H47            5.8908     7.0035    -0.6894 H       
  48 H48            6.3156     6.7070     1.0135 H       
  49 H49           -9.8771    -2.1080     0.4872 H       
  50 H50           -6.5757    -4.6919    -0.3525 H       
  51 H51           -5.0596    -2.7536    -0.3504 H       
  52 H52           -8.8830    -5.4797     0.4058 H       
  53 H53          -10.7980    -6.5854    -0.1616 H       
  54 H54          -12.2248    -5.5506     0.0871 H       
  55 H55          -11.6236    -5.8566    -1.5601 H       
@<TRIPOS>BOND
   1    1    2 1
   2    1    8 1
   3    1    5 1
   4    2    3 2
   5    2    6 1
   6    3    4 1
   7    3   32 1
   8    4    5 2
   9    4    9 1
  10    5    7 1
  11    6   33 1
  12    6   34 1
  13    6   35 1
  14    7   36 1
  15    7   37 1
  16    7   38 1
  17    8   15 ar
  18    8   19 ar
  19    9   10 2
  20    9   11 1
  21   11   12 1
  22   11   39 1
  23   11   40 1
  24   12   13 1
  25   13   14 ar
  26   13   27 ar
  27   14   24 ar
  28   14   41 1
  29   15   16 ar
  30   15   42 1
  31   16   17 ar
  32   16   43 1
  33   17   18 ar
  34   17   20 1
  35   18   19 ar
  36   18   44 1
  37   19   45 1
  38   20   21 2
  39   20   22 1
  40   22   23 1
  41   23   46 1
  42   23   47 1
  43   23   48 1
  44   24   25 ar
  45   24   49 1
  46   25   26 ar
  47   25   28 1
  48   26   27 ar
  49   26   50 1
  50   27   51 1
  51   28   29 am
  52   28   52 1
  53   29   30 2
  54   29   31 1
  55   31   53 1
  56   31   54 1
  57   31   55 1

#	End of record

