#	Name: ASD05940105
#	Creating user name:	WinNT
#	Creation time:	15. 06. 2019 21:04

#	Modifying user name:	WinNT
#	Modification time:	15. 06. 2019 21:04

#	Program:	/corina/corina34_cracker 3.40 0067  02.08.2006

@<TRIPOS>MOLECULE
ASD05940105
  55   58    0    0    0
SMALL
NO_CHARGES


@<TRIPOS>ATOM
   1 C1             2.3548     1.4899     0.6438 C.ar    
   2 C2             2.4667     0.1140     0.6718 C.ar    
   3 C3             1.2694     2.0853     0.0149 C.ar    
   4 C4             0.2971     1.2964    -0.5855 C.ar    
   5 C5             0.4101    -0.0794    -0.5568 C.ar    
   6 C6             1.4949    -0.6736     0.0717 C.ar    
   7 O7             1.6054    -2.0285     0.1000 O.3     
   8 C8             1.7875    -2.6499    -1.0760 C.2     
   9 C9             2.0301    -4.1368    -1.1130 C.3     
  10 O10            1.7568    -2.0170    -2.1048 O.2     
  11 N11            1.1550     3.4809    -0.0135 N.am    
  12 C12            2.2593     4.2493     0.0684 C.2     
  13 C13            2.1290     5.7471     0.1717 C.3     
  14 O14            3.3579     3.7353     0.0589 O.2     
  15 C15            3.5216     6.3759     0.2508 C.3     
  16 C16            3.3894     7.8966     0.3556 C.3     
  17 C17            2.6577     8.4311    -0.8772 C.3     
  18 C18            1.2651     7.8023    -0.9562 C.3     
  19 C19            1.3973     6.2816    -1.0611 C.3     
  20 C20            0.4720     8.1597     0.3024 C.3     
  21 C21            1.3359     6.1045     1.4303 C.3     
  22 C22            1.2037     7.6251     1.5352 C.3     
  23 C23            2.5963     8.2539     1.6143 C.3     
  24 C24            2.2040    -4.5892    -2.5642 C.3     
  25 C25            2.4503    -6.0987    -2.6017 C.3     
  26 C26            2.6242    -6.5511    -4.0529 C.3     
  27 H27            3.1091     2.1028     1.1148 H       
  28 H28            3.3110    -0.3492     1.1605 H       
  29 H29           -0.5476     1.7588    -1.0745 H       
  30 H30           -0.3460    -0.6931    -1.0237 H       
  31 H31            2.9324    -4.3718    -0.5485 H       
  32 H32            1.1793    -4.6548    -0.6703 H       
  33 H33            0.2811     3.8945    -0.0920 H       
  34 H34            4.0429     5.9951     1.1290 H       
  35 H35            4.0867     6.1213    -0.6459 H       
  36 H36            4.3815     8.3445     0.4120 H       
  37 H37            2.5635     9.5144    -0.8024 H       
  38 H38            3.2227     8.1765    -1.7738 H       
  39 H39            0.7438     8.1831    -1.8345 H       
  40 H40            1.9624     6.0271    -1.9578 H       
  41 H41            0.4052     5.8337    -1.1174 H       
  42 H42            0.3778     9.2430     0.3771 H       
  43 H43           -0.5201     7.7117     0.2461 H       
  44 H44            0.3438     5.6565     1.3740 H       
  45 H45            1.8572     5.7237     2.3086 H       
  46 H46            0.6386     7.8797     2.4319 H       
  47 H47            3.1175     7.8731     2.4925 H       
  48 H48            2.5020     9.3373     1.6890 H       
  49 H49            1.3016    -4.3541    -3.1286 H       
  50 H50            3.0547    -4.0711    -3.0068 H       
  51 H51            3.3526    -6.3338    -2.0373 H       
  52 H52            1.5995    -6.6168    -2.1591 H       
  53 H53            2.7996    -7.6266    -4.0797 H       
  54 H54            1.7218    -6.3161    -4.6174 H       
  55 H55            3.4749    -6.0331    -4.4956 H       
@<TRIPOS>BOND
   1    1    2 ar
   2    1    3 ar
   3    1   27 1
   4    2    6 ar
   5    2   28 1
   6    3    4 ar
   7    3   11 1
   8    4    5 ar
   9    4   29 1
  10    5    6 ar
  11    5   30 1
  12    6    7 1
  13    7    8 1
  14    8    9 1
  15    8   10 2
  16    9   24 1
  17    9   31 1
  18    9   32 1
  19   11   12 am
  20   11   33 1
  21   12   13 1
  22   12   14 2
  23   13   15 1
  24   13   21 1
  25   13   19 1
  26   15   16 1
  27   15   34 1
  28   15   35 1
  29   16   17 1
  30   16   23 1
  31   16   36 1
  32   17   18 1
  33   17   37 1
  34   17   38 1
  35   18   19 1
  36   18   20 1
  37   18   39 1
  38   19   40 1
  39   19   41 1
  40   20   22 1
  41   20   42 1
  42   20   43 1
  43   21   22 1
  44   21   44 1
  45   21   45 1
  46   22   23 1
  47   22   46 1
  48   23   47 1
  49   23   48 1
  50   24   25 1
  51   24   49 1
  52   24   50 1
  53   25   26 1
  54   25   51 1
  55   25   52 1
  56   26   53 1
  57   26   54 1
  58   26   55 1

#	End of record

