#	Name: ASD01903128
#	Creating user name:	WinNT
#	Creation time:	15. 06. 2019 19:54

#	Modifying user name:	WinNT
#	Modification time:	15. 06. 2019 19:54

#	Program:	/corina/corina34_cracker 3.40 0067  02.08.2006

@<TRIPOS>MOLECULE
ASD01903128
  32   34    0    0    0
SMALL
NO_CHARGES


@<TRIPOS>ATOM
   1 N1            -0.0427     1.3990    -0.0019 N.am    
   2 C2            -0.0172    -0.0043    -0.0067 C.ar    
   3 C3            -0.2418    -0.6991    -1.1886 C.ar    
   4 C4            -0.2166    -2.0804    -1.1930 C.ar    
   5 C5             0.0331    -2.7736    -0.0160 C.ar    
   6 C6             0.2575    -2.0782     1.1654 C.ar    
   7 C7             0.2380    -0.6979     1.1684 C.ar    
   8 C8             1.0477     2.1441    -0.2213 C.2     
   9 C9             0.6734     3.6083    -0.1463 C.3     
  10 C10           -0.8384     3.5799     0.1576 C.3     
  11 C11           -1.1604     2.1026     0.2168 C.2     
  12 O12            2.1590     1.7140    -0.4443 O.2     
  13 O13           -2.2557     1.6309     0.4350 O.2     
  14 Cl14          -0.5544     0.1683    -2.6596 Cl      
  15 N15            0.0582    -4.1731    -0.0199 N.am    
  16 C16            0.5500    -4.8353    -1.0857 C.2     
  17 O17            0.8935    -4.2211    -2.0779 O.2     
  18 C18            0.6716    -6.3023    -1.0491 C.2     
  19 N19            0.3135    -7.0386     0.0062 N.2     
  20 C20            0.4800    -8.3084    -0.1155 C.2     
  21 S21            1.1334    -8.6835    -1.6480 S.3     
  22 C22            1.1509    -7.0304    -2.0828 C.2     
  23 H23           -0.3915    -2.6209    -2.1115 H       
  24 H24            0.4517    -2.6174     2.0807 H       
  25 H25            0.4128    -0.1576     2.0871 H       
  26 H26            1.2173     4.1026     0.6586 H       
  27 H27            0.8639     4.1022    -1.0992 H       
  28 H28           -1.0465     4.0600     1.1138 H       
  29 H29           -1.3999     4.0596    -0.6440 H       
  30 H30           -0.2784    -4.6663     0.7446 H       
  31 H31            0.2402    -9.0360     0.6457 H       
  32 H32            1.4929    -6.6323    -3.0267 H       
@<TRIPOS>BOND
   1    1    2 1
   2    1    8 am
   3    1   11 am
   4    2    3 ar
   5    2    7 ar
   6    3    4 ar
   7    3   14 1
   8    4    5 ar
   9    4   23 1
  10    5    6 ar
  11    5   15 1
  12    6    7 ar
  13    6   24 1
  14    7   25 1
  15    8    9 1
  16    8   12 2
  17    9   10 1
  18    9   26 1
  19    9   27 1
  20   10   11 1
  21   10   28 1
  22   10   29 1
  23   11   13 2
  24   15   16 am
  25   15   30 1
  26   16   17 2
  27   16   18 1
  28   18   19 1
  29   18   22 2
  30   19   20 2
  31   20   21 1
  32   20   31 1
  33   21   22 1
  34   22   32 1

#	End of record

