#	Name: ASD00660006
#	Creating user name:	WinNT
#	Creation time:	15. 06. 2019 18:36

#	Modifying user name:	WinNT
#	Modification time:	15. 06. 2019 18:36

#	Program:	/corina/corina34_cracker 3.40 0067  02.08.2006

@<TRIPOS>MOLECULE
ASD00660006
  64   68    0    0    0
SMALL
NO_CHARGES


@<TRIPOS>ATOM
   1 C1             8.2953    -3.0843     6.5422 C.ar    
   2 C2             7.2118    -3.8139     6.0700 C.ar    
   3 C3             6.5926    -3.4727     4.8892 C.ar    
   4 C4             7.0580    -2.3788     4.1543 C.ar    
   5 C5             8.1611    -1.6385     4.6381 C.ar    
   6 C6             8.7730    -2.0020     5.8366 C.ar    
   7 N7             6.4772    -2.0109     2.9882 N.2     
   8 C8             6.9134    -0.9858     2.2987 C.2     
   9 N9             7.9732    -0.2175     2.6951 N.am    
  10 C10            8.6299    -0.4939     3.8454 C.2     
  11 C11            8.3821     0.8638     1.9039 C.ar    
  12 C12            9.2649     0.6613     0.8515 C.ar    
  13 C13            9.6657     1.7294     0.0730 C.ar    
  14 C14            9.1888     2.9995     0.3408 C.ar    
  15 C15            8.3099     3.2045     1.3885 C.ar    
  16 C16            7.9009     2.1395     2.1670 C.ar    
  17 O17            9.5745     0.1817     4.2105 O.2     
  18 S18            6.0974    -0.5785     0.7911 S.3     
  19 C19            4.9423    -1.9670     0.6738 C.3     
  20 C20            4.0275    -1.7685    -0.5364 C.3     
  21 C21            3.1605    -0.5262    -0.3220 C.3     
  22 C22            2.1578    -0.3996    -1.4707 C.3     
  23 C23            1.2909     0.8427    -1.2564 C.3     
  24 C24            5.7149    -3.2510     0.5142 C.2     
  25 N25            5.1302    -4.4300     0.8052 N.am    
  26 O26            6.8629    -3.2235     0.1238 O.2     
  27 C27            5.8813    -5.6782     0.6501 C.3     
  28 C28            6.3614    -6.1999     2.0388 C.3     
  29 C29            5.0908    -6.1361     2.9403 C.3     
  30 C30            4.1712    -7.2547     2.3993 C.3     
  31 C31            4.9618    -6.7967     0.1090 C.3     
  32 C32            4.9729    -7.8889     1.2218 C.3     
  33 C33            6.4407    -7.7420     1.7578 C.3     
  34 H34            8.7647    -3.3654     7.4734 H       
  35 H35            6.8510    -4.6598     6.6363 H       
  36 H36            5.7512    -4.0478     4.5320 H       
  37 H37            9.6161    -1.4392     6.2092 H       
  38 H38            9.6379    -0.3303     0.6420 H       
  39 H39           10.3526     1.5726    -0.7455 H       
  40 H40            9.5038     3.8331    -0.2693 H       
  41 H41            7.9398     4.1977     1.5956 H       
  42 H42            7.2144     2.3002     2.9852 H       
  43 H43            4.3397    -2.0160     1.5807 H       
  44 H44            4.6338    -1.6382    -1.4328 H       
  45 H45            3.3870    -2.6425    -0.6549 H       
  46 H46            2.6225    -0.6170     0.6216 H       
  47 H47            3.7953     0.3595    -0.2946 H       
  48 H48            2.6959    -0.3088    -2.4143 H       
  49 H49            1.5231    -1.2853    -1.4982 H       
  50 H50            0.5766     0.9329    -2.0747 H       
  51 H51            0.7529     0.7519    -0.3127 H       
  52 H52            1.9257     1.7284    -1.2289 H       
  53 H53            4.2121    -4.4520     1.1174 H       
  54 H54            6.7322    -5.5286    -0.0145 H       
  55 H55            7.2563    -5.7261     2.4424 H       
  56 H56            5.3528    -6.3296     3.9805 H       
  57 H57            4.6050    -5.1651     2.8442 H       
  58 H58            3.9811    -7.9981     3.1734 H       
  59 H59            3.2333    -6.8336     2.0371 H       
  60 H60            3.9508    -6.4179    -0.0416 H       
  61 H61            5.3604    -7.1991    -0.8223 H       
  62 H62            4.6584    -8.8861     0.9138 H       
  63 H63            7.1807    -7.9808     0.9939 H       
  64 H64            6.6020    -8.3160     2.6703 H       
@<TRIPOS>BOND
   1    1    2 ar
   2    1    6 ar
   3    1   34 1
   4    2    3 ar
   5    2   35 1
   6    3    4 ar
   7    3   36 1
   8    4    5 ar
   9    4    7 1
  10    5    6 ar
  11    5   10 1
  12    6   37 1
  13    7    8 2
  14    8    9 1
  15    8   18 1
  16    9   10 am
  17    9   11 1
  18   10   17 2
  19   11   12 ar
  20   11   16 ar
  21   12   13 ar
  22   12   38 1
  23   13   14 ar
  24   13   39 1
  25   14   15 ar
  26   14   40 1
  27   15   16 ar
  28   15   41 1
  29   16   42 1
  30   18   19 1
  31   19   20 1
  32   19   24 1
  33   19   43 1
  34   20   21 1
  35   20   44 1
  36   20   45 1
  37   21   22 1
  38   21   46 1
  39   21   47 1
  40   22   23 1
  41   22   48 1
  42   22   49 1
  43   23   50 1
  44   23   51 1
  45   23   52 1
  46   24   25 am
  47   24   26 2
  48   25   27 1
  49   25   53 1
  50   27   28 1
  51   27   31 1
  52   27   54 1
  53   28   29 1
  54   28   33 1
  55   28   55 1
  56   29   30 1
  57   29   56 1
  58   29   57 1
  59   30   32 1
  60   30   58 1
  61   30   59 1
  62   31   32 1
  63   31   60 1
  64   31   61 1
  65   32   33 1
  66   32   62 1
  67   33   63 1
  68   33   64 1

#	End of record

