#	Name: ASD02198495
#	Creating user name:	WinNT
#	Creation time:	15. 06. 2019 20:19

#	Modifying user name:	WinNT
#	Modification time:	15. 06. 2019 20:19

#	Program:	/corina/corina34_cracker 3.40 0067  02.08.2006

@<TRIPOS>MOLECULE
ASD02198495
  38   41    0    0    0
SMALL
NO_CHARGES


@<TRIPOS>ATOM
   1 C1            -0.0438     1.5052    -0.1136 C.2     
   2 C2            -0.0746     0.1657     0.0993 C.2     
   3 N3             1.0694    -0.5368     0.2620 N.pl3   
   4 N4             2.2343    -0.0030     0.2279 N.2     
   5 C5             2.4069     1.2859     0.0290 C.2     
   6 C6             1.2216     2.1382    -0.1595 C.2     
   7 C7             0.9768    -1.9156     0.4789 C.ar    
   8 C8             1.4826    -3.8501     1.8060 C.ar    
   9 C9             0.7944    -4.6440     0.9073 C.ar    
  10 C10            0.2018    -4.0789    -0.2074 C.ar    
  11 C11            0.2909    -2.7180    -0.4242 C.ar    
  12 C12            3.7644     1.8671    -0.0037 C.2     
  13 N13            4.3072     2.6060    -1.0171 N.pl3   
  14 N14            5.6094     2.9564    -0.6394 N.2     
  15 C15            5.8526     2.4572     0.5462 C.2     
  16 C16            4.7198     1.7714     0.9843 C.2     
  17 C17            3.6746     2.9507    -2.2183 C.ar    
  18 C18            2.9072     2.0117    -2.8949 C.ar    
  19 O19            1.3256     3.3410    -0.3481 O.2     
  20 C20            1.5759    -2.4871     1.5956 C.ar    
  21 Cl21           2.4406    -1.4905     2.7238 Cl      
  22 C22            3.8090     4.2337    -2.7322 C.ar    
  23 C23            3.1840     4.5705    -3.9169 C.ar    
  24 C24            2.4252     3.6315    -4.5913 C.ar    
  25 C25            2.2848     2.3546    -4.0792 C.ar    
  26 H26           -0.9548     2.0695    -0.2480 H       
  27 H27           -1.0248    -0.3461     0.1396 H       
  28 H28            1.9441    -4.2946     2.6753 H       
  29 H29            0.7231    -5.7087     1.0738 H       
  30 H30           -0.3346    -4.7023    -0.9074 H       
  31 H31           -0.1725    -2.2779    -1.2947 H       
  32 H32            6.7762     2.5626     1.0960 H       
  33 H33            4.6132     1.2526     1.9256 H       
  34 H34            2.7975     1.0142    -2.4957 H       
  35 H35            4.4012     4.9676    -2.2059 H       
  36 H36            3.2879     5.5683    -4.3169 H       
  37 H37            1.9372     3.8973    -5.5173 H       
  38 H38            1.6918     1.6234    -4.6084 H       
@<TRIPOS>BOND
   1    1    2 2
   2    1    6 1
   3    1   26 1
   4    2    3 1
   5    2   27 1
   6    3    4 1
   7    3    7 1
   8    4    5 2
   9    5    6 1
  10    5   12 1
  11    6   19 2
  12    7   20 ar
  13    7   11 ar
  14    8    9 ar
  15    8   20 ar
  16    8   28 1
  17    9   10 ar
  18    9   29 1
  19   10   11 ar
  20   10   30 1
  21   11   31 1
  22   12   13 1
  23   12   16 2
  24   13   14 1
  25   13   17 1
  26   14   15 2
  27   15   16 1
  28   15   32 1
  29   16   33 1
  30   17   22 ar
  31   17   18 ar
  32   18   25 ar
  33   18   34 1
  34   20   21 1
  35   22   23 ar
  36   22   35 1
  37   23   24 ar
  38   23   36 1
  39   24   25 ar
  40   24   37 1
  41   25   38 1

#	End of record

