#	Name: ASD00960260
#	Creating user name:	WinNT
#	Creation time:	15. 06. 2019 18:53

#	Modifying user name:	WinNT
#	Modification time:	15. 06. 2019 18:53

#	Program:	/corina/corina34_cracker 3.40 0067  02.08.2006

@<TRIPOS>MOLECULE
ASD00960260
  48   50    0    0    0
SMALL
NO_CHARGES


@<TRIPOS>ATOM
   1 C1            -0.0167     1.3828     0.0096 C.2     
   2 C2             0.0021    -0.0041     0.0020 C.2     
   3 N3             1.2814     1.8102    -0.0005 N.pl3   
   4 C4             2.0979     0.7202     0.0007 C.2     
   5 C5             1.3460    -0.3958    -0.0053 C.2     
   6 N6             1.7961     3.1155     0.0016 N.2     
   7 C7             3.0775     3.2788    -0.2228 C.2     
   8 N8             3.9033     2.2045    -0.5221 N.pl3   
   9 C9             3.6029     0.8672     0.0198 C.3     
  10 N10            4.1017     0.7592     1.3974 N.3     
  11 C11            3.6372     4.5953    -0.1582 C.1     
  12 C12            4.0962     5.6746    -0.1052 C.1     
  13 Si13           4.8389     7.4213    -0.0194 Si      
  14 C14            6.6647     7.3382    -0.3805 C.3     
  15 C15            4.0059     8.5128    -1.2786 C.3     
  16 C16            4.5744     8.1256     1.6849 C.3     
  17 C17           -1.2077     2.2323     0.0202 C.2     
  18 O18           -2.3146     1.7278     0.0234 O.2     
  19 O19           -1.0784     3.5751     0.0263 O.3     
  20 C20           -2.2836     4.3429     0.0365 C.3     
  21 C21           -1.9439     5.8111     0.0422 C.ar    
  22 C22           -1.7943     6.4906    -1.1523 C.ar    
  23 C23           -1.4827     7.8373    -1.1471 C.ar    
  24 C24           -1.3210     8.5047     0.0526 C.ar    
  25 C25           -1.4715     7.8254     1.2471 C.ar    
  26 C26           -1.7874     6.4797     1.2419 C.ar    
  27 H27           -0.8575    -0.6580     0.0017 H       
  28 H28            1.7135    -1.4114    -0.0136 H       
  29 H29            4.6797     2.3339    -1.0890 H       
  30 H30            4.0604     0.1001    -0.6049 H       
  31 H31            5.1001     0.9006     1.4325 H       
  32 H32            3.6233     1.4056     2.0068 H       
  33 H33            6.8194     6.9261    -1.3777 H       
  34 H34            7.0908     8.3402    -0.3313 H       
  35 H35            7.1520     6.6995     0.3562 H       
  36 H36            2.9377     8.5614    -1.0673 H       
  37 H37            4.4320     9.5149    -1.2294 H       
  38 H38            4.1606     8.1007    -2.2758 H       
  39 H39            5.0617     7.4870     2.4216 H       
  40 H40            5.0005     9.1276     1.7341 H       
  41 H41            3.5061     8.1742     1.8962 H       
  42 H42           -2.8708     4.1093    -0.8517 H       
  43 H43           -2.8615     4.1002     0.9283 H       
  44 H44           -1.9206     5.9691    -2.0897 H       
  45 H45           -1.3651     8.3680    -2.0804 H       
  46 H46           -1.0768     9.5567     0.0567 H       
  47 H47           -1.3449     8.3468     2.1845 H       
  48 H48           -1.9087     5.9498     2.1752 H       
@<TRIPOS>BOND
   1    1    2 2
   2    1    3 1
   3    1   17 1
   4    2    5 1
   5    2   27 1
   6    3    4 1
   7    3    6 1
   8    4    5 2
   9    4    9 1
  10    5   28 1
  11    6    7 2
  12    7    8 1
  13    7   11 1
  14    8    9 1
  15    8   29 1
  16    9   10 1
  17    9   30 1
  18   10   31 1
  19   10   32 1
  20   11   12 3
  21   12   13 1
  22   13   14 1
  23   13   15 1
  24   13   16 1
  25   14   33 1
  26   14   34 1
  27   14   35 1
  28   15   36 1
  29   15   37 1
  30   15   38 1
  31   16   39 1
  32   16   40 1
  33   16   41 1
  34   17   18 2
  35   17   19 1
  36   19   20 1
  37   20   21 1
  38   20   42 1
  39   20   43 1
  40   21   22 ar
  41   21   26 ar
  42   22   23 ar
  43   22   44 1
  44   23   24 ar
  45   23   45 1
  46   24   25 ar
  47   24   46 1
  48   25   26 ar
  49   25   47 1
  50   26   48 1

#	End of record

