#	Name: ASD01903326
#	Creating user name:	WinNT
#	Creation time:	15. 06. 2019 19:54

#	Modifying user name:	WinNT
#	Modification time:	15. 06. 2019 19:54

#	Program:	/corina/corina34_cracker 3.40 0067  02.08.2006

@<TRIPOS>MOLECULE
ASD01903326
  29   32    0    0    0
SMALL
NO_CHARGES


@<TRIPOS>ATOM
   1 N1            -0.0111     0.9658     0.0074 N.pl3   
   2 H2             0.0021    -0.0041     0.0020 H       
   3 C3             1.1812     1.6760    -0.0002 C.2     
   4 C4            -1.2207     1.6425     0.0168 C.ar    
   5 S5             2.7372     0.9680    -0.0189 S.3     
   6 C6             3.4814     2.5568    -0.0118 C.2     
   7 C7             2.4839     3.4907    -0.0091 C.2     
   8 N8             1.2711     2.9687     0.0002 N.2     
   9 N9            -2.3496     0.9490     0.0184 N.ar    
  10 C10           -3.5207     1.5636     0.0272 C.ar    
  11 C11           -3.5570     2.9493     0.0350 C.ar    
  12 C12           -2.3572     3.6436     0.0330 C.ar    
  13 N13           -1.2205     2.9673     0.0294 N.ar    
  14 C14            4.9482     2.8935     0.0039 C.3     
  15 C15            5.2271     4.2121    -0.7193 C.3     
  16 C16            4.1926     5.2464    -0.3693 C.2     
  17 C17            2.8933     4.9257    -0.0445 C.2     
  18 N18            4.2931     6.5809    -0.3045 N.pl3   
  19 N19            3.0368     7.0998     0.0485 N.2     
  20 C20            2.1982     6.1007     0.2022 C.2     
  21 H21           -4.4375     0.9929     0.0281 H       
  22 H22           -4.4995     3.4765     0.0419 H       
  23 H23           -2.3506     4.7235     0.0385 H       
  24 H24            5.2839     2.9760     1.0377 H       
  25 H25            5.5028     2.0936    -0.4868 H       
  26 H26            6.2120     4.5783    -0.4294 H       
  27 H27            5.2121     4.0405    -1.7956 H       
  28 H28            5.0955     7.0993    -0.4728 H       
  29 H29            1.1555     6.1796     0.4723 H       
@<TRIPOS>BOND
   1    1    2 1
   2    1    3 1
   3    1    4 1
   4    3    5 1
   5    3    8 2
   6    4    9 ar
   7    4   13 ar
   8    5    6 1
   9    6    7 2
  10    6   14 1
  11    7    8 1
  12    7   17 1
  13    9   10 ar
  14   10   11 ar
  15   10   21 1
  16   11   12 ar
  17   11   22 1
  18   12   13 ar
  19   12   23 1
  20   14   15 1
  21   14   24 1
  22   14   25 1
  23   15   16 1
  24   15   26 1
  25   15   27 1
  26   16   17 2
  27   16   18 1
  28   17   20 1
  29   18   19 1
  30   18   28 1
  31   19   20 2
  32   20   29 1

#	End of record

