#	Name: ASD01812744
#	Creating user name:	WinNT
#	Creation time:	15. 06. 2019 19:29

#	Modifying user name:	WinNT
#	Modification time:	15. 06. 2019 19:29

#	Program:	/corina/corina34_cracker 3.40 0067  02.08.2006

@<TRIPOS>MOLECULE
ASD01812744
  46   49    0    0    0
SMALL
NO_CHARGES


@<TRIPOS>ATOM
   1 C1             0.0576     1.4304    -0.6145 C.ar    
   2 C2             0.1013     0.0681    -0.8344 C.ar    
   3 C3             1.2833    -0.6330    -0.6482 C.ar    
   4 C4             2.4191     0.0258    -0.2438 C.ar    
   5 C5             2.3933     1.4052    -0.0169 C.ar    
   6 C6             1.1963     2.1093    -0.2060 C.ar    
   7 C7             3.8294    -0.4261     0.0428 C.3     
   8 N8             4.5723     0.7763     0.4377 N.am    
   9 C9             3.7391     1.8304     0.4016 C.2     
  10 C10            5.9884     0.8203     0.8103 C.3     
  11 C11            6.8241     1.0650    -0.4197 C.ar    
  12 C12            7.1236     2.3582    -0.8055 C.ar    
  13 C13            7.8904     2.5831    -1.9333 C.ar    
  14 C14            8.3581     1.5139    -2.6759 C.ar    
  15 C15            8.0581     0.2201    -2.2895 C.ar    
  16 C16            7.2956    -0.0040    -1.1586 C.ar    
  17 O17            1.1515     3.4479     0.0091 O.3     
  18 O18            4.0524     2.9728     0.6761 O.2     
  19 C19           -0.1276     4.0779    -0.0868 C.3     
  20 C20           -0.1314     5.3599     0.7516 C.3     
  21 C21           -1.4777     6.0684     0.5802 C.3     
  22 O22           -1.6961     6.3448    -0.8047 O.3     
  23 C23           -1.7496     5.1800    -1.6308 C.3     
  24 C24           -0.4142     4.4358    -1.5483 C.3     
  25 O25            0.0631     5.0306     2.1285 O.3     
  26 Br26           9.4067     1.8210    -4.2193 Br      
  27 H27           -0.8654     1.9703    -0.7655 H       
  28 H28           -0.7890    -0.4540    -1.1523 H       
  29 H29            1.3109    -1.6987    -0.8212 H       
  30 H30            3.8323    -1.1522     0.8557 H       
  31 H31            4.2721    -0.8630    -0.8522 H       
  32 H32            6.1509     1.6261     1.5261 H       
  33 H33            6.2752    -0.1297     1.2613 H       
  34 H34            6.7582     3.1930    -0.2258 H       
  35 H35            8.1241     3.5935    -2.2349 H       
  36 H36            8.4227    -0.6150    -2.8692 H       
  37 H37            7.0648    -1.0142    -0.8545 H       
  38 H38           -0.8979     3.3998     0.2804 H       
  39 H39            0.6712     6.0168     0.4163 H       
  40 H40           -2.2761     5.4269     0.9532 H       
  41 H41           -1.4705     7.0032     1.1407 H       
  42 H42           -2.5515     4.5269    -1.2868 H       
  43 H43           -1.9382     5.4748    -2.6631 H       
  44 H44            0.3827     5.0740    -1.9300 H       
  45 H45           -0.4681     3.5238    -2.1428 H       
  46 H46            0.0716     5.7966     2.7186 H       
@<TRIPOS>BOND
   1    1    2 ar
   2    1    6 ar
   3    1   27 1
   4    2    3 ar
   5    2   28 1
   6    3    4 ar
   7    3   29 1
   8    4    7 1
   9    4    5 ar
  10    5    6 ar
  11    5    9 1
  12    6   17 1
  13    7    8 1
  14    7   30 1
  15    7   31 1
  16    8    9 am
  17    8   10 1
  18    9   18 2
  19   10   11 1
  20   10   32 1
  21   10   33 1
  22   11   12 ar
  23   11   16 ar
  24   12   13 ar
  25   12   34 1
  26   13   14 ar
  27   13   35 1
  28   14   15 ar
  29   14   26 1
  30   15   16 ar
  31   15   36 1
  32   16   37 1
  33   17   19 1
  34   19   20 1
  35   19   24 1
  36   19   38 1
  37   20   21 1
  38   20   25 1
  39   20   39 1
  40   21   22 1
  41   21   40 1
  42   21   41 1
  43   22   23 1
  44   23   24 1
  45   23   42 1
  46   23   43 1
  47   24   44 1
  48   24   45 1
  49   25   46 1

#	End of record

