#	Name: ASD01811369
#	Creating user name:	WinNT
#	Creation time:	15. 06. 2019 19:26

#	Modifying user name:	WinNT
#	Modification time:	15. 06. 2019 19:26

#	Program:	/corina/corina34_cracker 3.40 0067  02.08.2006

@<TRIPOS>MOLECULE
ASD01811369
  44   45    0    0    0
SMALL
NO_CHARGES


@<TRIPOS>ATOM
   1 N1            -0.0178     1.4650     0.0101 N.am    
   2 C2             0.0021    -0.0041     0.0020 C.3     
   3 C3             0.8580    -0.4791    -1.1763 C.3     
   4 C4             2.2423     0.1678    -1.0896 C.3     
   5 C5             2.1025     1.6893    -1.1766 C.3     
   6 C6             1.2607     2.1889     0.0018 C.3     
   7 C7            -1.1868     2.1359     0.0193 C.2     
   8 O8            -2.2375     1.5256     0.0210 O.2     
   9 O9            -1.1902     3.4822     0.0266 O.3     
  10 O10            2.8551    -0.1838     0.1525 O.3     
  11 C11            3.0983    -0.3236    -2.2283 C.ar    
  12 C12            4.4694    -0.4179    -2.0682 C.ar    
  13 C13            5.2590    -0.8670    -3.1064 C.ar    
  14 C14            4.6714    -1.2271    -4.3208 C.ar    
  15 C15            3.2871    -1.1299    -4.4753 C.ar    
  16 C16            2.5090    -0.6838    -3.4272 C.ar    
  17 C17            5.4849    -1.6937    -5.4030 C.1     
  18 N18            6.1303    -2.0638    -6.2616 N.1     
  19 C19           -2.4856     4.1381     0.0364 C.3     
  20 C20           -3.2605     3.7182     1.2870 C.3     
  21 C21           -2.2890     5.6554     0.0437 C.3     
  22 C22           -3.2723     3.7317    -1.2114 C.3     
  23 H23            0.4307    -0.3688     0.9355 H       
  24 H24           -1.0141    -0.3827    -0.1084 H       
  25 H25            0.9602    -1.5636    -1.1379 H       
  26 H26            0.3799    -0.1912    -2.1126 H       
  27 H27            3.0905     2.1482    -1.1383 H       
  28 H28            1.6127     1.9568    -2.1129 H       
  29 H29            1.0750     3.2573    -0.1088 H       
  30 H30            1.7919     2.0030     0.9352 H       
  31 H31            3.7374     0.1923     0.2762 H       
  32 H32            4.9225    -0.1390    -1.1284 H       
  33 H33            6.3292    -0.9394    -2.9804 H       
  34 H34            2.8263    -1.4069    -5.4120 H       
  35 H35            1.4377    -0.6120    -3.5440 H       
  36 H36           -2.7000     4.0076     2.1759 H       
  37 H37           -4.2329     4.2105     1.2943 H       
  38 H38           -3.4005     2.6372     1.2818 H       
  39 H39           -1.7370     5.9545    -0.8473 H       
  40 H40           -3.2615     6.1477     0.0510 H       
  41 H41           -1.7286     5.9448     0.9326 H       
  42 H42           -3.4124     2.6508    -1.2166 H       
  43 H43           -4.2448     4.2241    -1.2041 H       
  44 H44           -2.7203     4.0309    -2.1024 H       
@<TRIPOS>BOND
   1    1    2 1
   2    1    6 1
   3    1    7 am
   4    2    3 1
   5    2   23 1
   6    2   24 1
   7    3    4 1
   8    3   25 1
   9    3   26 1
  10    4    5 1
  11    4   10 1
  12    4   11 1
  13    5    6 1
  14    5   27 1
  15    5   28 1
  16    6   29 1
  17    6   30 1
  18    7    8 2
  19    7    9 1
  20    9   19 1
  21   10   31 1
  22   11   12 ar
  23   11   16 ar
  24   12   13 ar
  25   12   32 1
  26   13   14 ar
  27   13   33 1
  28   14   15 ar
  29   14   17 1
  30   15   16 ar
  31   15   34 1
  32   16   35 1
  33   17   18 3
  34   19   20 1
  35   19   22 1
  36   19   21 1
  37   20   36 1
  38   20   37 1
  39   20   38 1
  40   21   39 1
  41   21   40 1
  42   21   41 1
  43   22   42 1
  44   22   43 1
  45   22   44 1

#	End of record

