#	Name: ASD01883679
#	Creating user name:	WinNT
#	Creation time:	15. 06. 2019 19:46

#	Modifying user name:	WinNT
#	Modification time:	15. 06. 2019 19:46

#	Program:	/corina/corina34_cracker 3.40 0067  02.08.2006

@<TRIPOS>MOLECULE
ASD01883679
  45   48    0    0    0
SMALL
NO_CHARGES


@<TRIPOS>ATOM
   1 C1            -0.0169     1.3973     0.0097 C.2     
   2 C2             0.0021    -0.0041     0.0020 C.2     
   3 C3            -1.2215    -0.7048     0.0104 C.2     
   4 C4            -2.3968    -0.0478     0.0257 C.2     
   5 N5            -2.4614     1.3150     0.0332 N.pl3   
   6 C6            -1.3170     2.0709     0.0319 C.2     
   7 C7            -3.5151     2.1908     0.0479 C.2     
   8 C8            -2.9971     3.4375     0.0491 C.2     
   9 N9            -1.6635     3.3454     0.0402 N.2     
  10 C10           -4.9782     1.8300     0.0603 C.3     
  11 C11           -5.5175     1.8372    -1.3715 C.3     
  12 F12           -4.8135     0.9036    -2.1396 F       
  13 F13           -6.8758     1.5022    -1.3599 F       
  14 F14           -5.3564     3.1122    -1.9241 F       
  15 C15            1.2870    -0.7373    -0.0152 C.ar    
  16 C16            1.6541    -1.5335     1.0707 C.ar    
  17 C17            2.8534    -2.2151     1.0482 C.ar    
  18 C18            3.6917    -2.1101    -0.0476 C.ar    
  19 C19            3.3336    -1.3225    -1.1273 C.ar    
  20 C20            2.1345    -0.6404    -1.1198 C.ar    
  21 C21            5.0007    -2.8566    -0.0649 C.3     
  22 C22            4.7929    -4.2210    -0.6703 C.ar    
  23 C23            4.9371    -4.4017    -2.0332 C.ar    
  24 C24            4.7465    -5.6532    -2.5884 C.ar    
  25 C25            4.4121    -6.7241    -1.7808 C.ar    
  26 C26            4.2689    -6.5435    -0.4178 C.ar    
  27 C27            4.4637    -5.2930     0.1381 C.ar    
  28 F28            5.9332    -2.1452    -0.8275 F       
  29 F29            5.4763    -2.9945     1.2435 F       
  30 C30            1.2015     2.1497     0.0021 C.1     
  31 N31            2.1680     2.7465    -0.0039 N.1     
  32 H32           -1.2159    -1.7848     0.0042 H       
  33 H33           -3.3151    -0.6162     0.0317 H       
  34 H34           -3.5653     4.3560     0.0587 H       
  35 H35           -5.1038     0.8365     0.4909 H       
  36 H36           -5.5268     2.5573     0.6588 H       
  37 H37            1.0010    -1.6157     1.9269 H       
  38 H38            3.1387    -2.8315     1.8878 H       
  39 H39            3.9924    -1.2448    -1.9796 H       
  40 H40            1.8561    -0.0259    -1.9632 H       
  41 H41            5.1983    -3.5650    -2.6642 H       
  42 H42            4.8584    -5.7942    -3.6533 H       
  43 H43            4.2625    -7.7017    -2.2147 H       
  44 H44            4.0073    -7.3801     0.2132 H       
  45 H45            4.3518    -5.1519     1.2030 H       
@<TRIPOS>BOND
   1    1    2 2
   2    1   30 1
   3    1    6 1
   4    2    3 1
   5    2   15 1
   6    3    4 2
   7    3   32 1
   8    4    5 1
   9    4   33 1
  10    5    6 1
  11    5    7 1
  12    6    9 2
  13    7    8 2
  14    7   10 1
  15    8    9 1
  16    8   34 1
  17   10   11 1
  18   10   35 1
  19   10   36 1
  20   11   12 1
  21   11   13 1
  22   11   14 1
  23   15   16 ar
  24   15   20 ar
  25   16   17 ar
  26   16   37 1
  27   17   18 ar
  28   17   38 1
  29   18   19 ar
  30   18   21 1
  31   19   20 ar
  32   19   39 1
  33   20   40 1
  34   21   22 1
  35   21   28 1
  36   21   29 1
  37   22   23 ar
  38   22   27 ar
  39   23   24 ar
  40   23   41 1
  41   24   25 ar
  42   24   42 1
  43   25   26 ar
  44   25   43 1
  45   26   27 ar
  46   26   44 1
  47   27   45 1
  48   30   31 3

#	End of record

