#	Name: ASD00844611
#	Creating user name:	WinNT
#	Creation time:	15. 06. 2019 18:50

#	Modifying user name:	WinNT
#	Modification time:	15. 06. 2019 18:50

#	Program:	/corina/corina34_cracker 3.40 0067  02.08.2006

@<TRIPOS>MOLECULE
ASD00844611
  98  103    0    0    0
SMALL
NO_CHARGES


@<TRIPOS>ATOM
   1 C1             0.5440     1.2791    -0.7651 C.ar    
   2 C2             0.8607    -0.0603    -0.9376 C.ar    
   3 C3             0.7988    -0.9300     0.1418 C.ar    
   4 C4             0.4222    -0.4603     1.3849 C.ar    
   5 C5             0.1065     0.8754     1.5542 C.ar    
   6 C6             0.1678     1.7440     0.4804 C.ar    
   7 C7             1.1418    -2.3859    -0.0422 C.3     
   8 C8             0.8720    -3.1593     1.2310 C.2     
   9 C9             0.3481    -2.9790    -1.2080 C.3     
  10 C10           -1.1229    -2.7353    -0.9897 C.2     
  11 N11           -2.0223    -3.2000    -1.8795 N.am    
  12 O12           -1.4976    -2.1211    -0.0133 O.2     
  13 C13           -3.4474    -2.8687    -1.7460 C.3     
  14 C14           -4.2583    -4.1684    -1.7504 C.3     
  15 C15           -3.9153    -4.9747    -3.0052 C.3     
  16 C16           -2.4276    -5.3336    -2.9922 C.3     
  17 C17           -1.5953    -4.0424    -3.0050 C.3     
  18 N18           -4.7156    -6.2063    -3.0294 N.3     
  19 C19           -4.5007    -6.9495    -4.2788 C.3     
  20 C20           -5.2881    -8.2611    -4.2310 C.3     
  21 N21           -6.7145    -7.9662    -4.0358 N.3     
  22 C22           -6.9295    -7.2230    -2.7864 C.3     
  23 C23           -6.1420    -5.9114    -2.8342 C.3     
  24 C24           -7.5148    -9.1978    -4.0601 C.3     
  25 O25           -0.2010    -3.2889     1.7814 O.2     
  26 N26            2.0446    -3.6747     1.6369 N.am    
  27 C27            2.6266    -2.5557    -0.2679 C.ar    
  28 C28            3.0941    -3.3394     0.7799 C.ar    
  29 C29            3.4823    -2.1007    -1.2457 C.ar    
  30 C30            4.8278    -2.4239    -1.1916 C.ar    
  31 C31            5.3068    -3.2050    -0.1518 C.ar    
  32 C32            4.4483    -3.6619     0.8299 C.ar    
  33 Cl33           5.9108    -1.8531    -2.4224 Cl      
  34 F34            6.6191    -3.5211    -0.0976 F       
  35 C35            1.9849    -6.2805     2.5205 C.ar    
  36 C36            0.7459    -6.6998     2.0576 C.ar    
  37 C37            3.0330    -7.1774     2.6023 C.ar    
  38 C38            2.8504    -8.4933     2.2232 C.ar    
  39 C39            1.6130    -8.9177     1.7594 C.ar    
  40 C40            0.5600    -8.0201     1.6769 C.ar    
  41 O41            1.4338   -10.2123     1.3870 O.3     
  42 O42           -0.2845    -5.8175     1.9778 O.3     
  43 C43            2.5623   -11.0817     1.4989 C.3     
  44 C44           -1.5316    -6.3186     1.4922 C.3     
  45 C45           -2.5628    -5.1885     1.4736 C.3     
  46 C46           -8.9435    -8.8866    -3.6096 C.3     
  47 S47            2.2240    -4.6012     2.9977 S.o2    
  48 O48            3.5859    -4.4845     3.3859 O.2     
  49 O49            1.1403    -4.2694     3.8548 O.2     
  50 O50            1.2305    -0.5201    -2.1618 O.3     
  51 C51            1.1916     0.4124    -3.2440 C.3     
  52 C52            1.6986    -0.2645    -4.5189 C.3     
  53 F53            2.9825    -0.7743    -4.2974 F       
  54 F54            0.8357    -1.3093    -4.8670 F       
  55 H55            0.5957     1.9589    -1.6027 H       
  56 H56            0.3740    -1.1368     2.2254 H       
  57 H57           -0.1884     1.2406     2.5268 H       
  58 H58           -0.0792     2.7867     0.6152 H       
  59 H59            0.6607    -2.5052    -2.1386 H       
  60 H60            0.5341    -4.0514    -1.2659 H       
  61 H61           -3.6129    -2.3380    -0.8084 H       
  62 H62           -3.7569    -2.2421    -2.5825 H       
  63 H63           -4.0130    -4.7533    -0.8638 H       
  64 H64           -5.3226    -3.9333    -1.7487 H       
  65 H65           -4.1377    -4.3799    -3.8911 H       
  66 H66           -2.1996    -5.9074    -2.0939 H       
  67 H67           -2.1890    -5.9277    -3.8743 H       
  68 H68           -1.7549    -3.5141    -3.9450 H       
  69 H69           -0.5388    -4.2876    -2.8961 H       
  70 H70           -4.8435    -6.3501    -5.1222 H       
  71 H71           -3.4389    -7.1669    -4.3946 H       
  72 H72           -5.1533    -8.8005    -5.1685 H       
  73 H73           -4.9266    -8.8723    -3.4041 H       
  74 H74           -7.9913    -7.0056    -2.6706 H       
  75 H75           -6.5866    -7.8225    -1.9431 H       
  76 H76           -6.2768    -5.3720    -1.8967 H       
  77 H77           -6.5035    -5.3002    -3.6611 H       
  78 H78           -7.5326    -9.5996    -5.0731 H       
  79 H79           -7.0730    -9.9316    -3.3859 H       
  80 H80            3.1046    -1.4926    -2.0543 H       
  81 H81            4.8280    -4.2699     1.6377 H       
  82 H82            3.9967    -6.8491     2.9629 H       
  83 H83            3.6712    -9.1922     2.2873 H       
  84 H84           -0.4038    -8.3485     1.3166 H       
  85 H85            3.3731   -10.7068     0.8743 H       
  86 H86            2.8910   -11.1185     2.5376 H       
  87 H87            2.2837   -12.0829     1.1703 H       
  88 H88           -1.3989    -6.7061     0.4821 H       
  89 H89           -1.8808    -7.1184     2.1452 H       
  90 H90           -3.5140    -5.5707     1.1032 H       
  91 H91           -2.6955    -4.8010     2.4837 H       
  92 H92           -2.2136    -4.3887     0.8206 H       
  93 H93           -8.9257    -8.4848    -2.5965 H       
  94 H94           -9.3853    -8.1528    -4.2838 H       
  95 H95           -9.5373    -9.8004    -3.6276 H       
  96 H96            0.1666     0.7508    -3.3953 H       
  97 H97            1.8257     1.2674    -3.0098 H       
  98 H98            1.7319     0.4643    -5.3287 H       
@<TRIPOS>BOND
   1    1    2 ar
   2    1    6 ar
   3    1   55 1
   4    2    3 ar
   5    2   50 1
   6    3    4 ar
   7    3    7 1
   8    4    5 ar
   9    4   56 1
  10    5    6 ar
  11    5   57 1
  12    6   58 1
  13    7    8 1
  14    7    9 1
  15    7   27 1
  16    8   25 2
  17    8   26 am
  18    9   10 1
  19    9   59 1
  20    9   60 1
  21   10   11 am
  22   10   12 2
  23   11   13 1
  24   11   17 1
  25   13   14 1
  26   13   61 1
  27   13   62 1
  28   14   15 1
  29   14   63 1
  30   14   64 1
  31   15   16 1
  32   15   18 1
  33   15   65 1
  34   16   17 1
  35   16   66 1
  36   16   67 1
  37   17   68 1
  38   17   69 1
  39   18   19 1
  40   18   23 1
  41   19   20 1
  42   19   70 1
  43   19   71 1
  44   20   21 1
  45   20   72 1
  46   20   73 1
  47   21   22 1
  48   21   24 1
  49   22   23 1
  50   22   74 1
  51   22   75 1
  52   23   76 1
  53   23   77 1
  54   24   46 1
  55   24   78 1
  56   24   79 1
  57   26   47 am
  58   26   28 1
  59   27   28 ar
  60   27   29 ar
  61   28   32 ar
  62   29   30 ar
  63   29   80 1
  64   30   31 ar
  65   30   33 1
  66   31   32 ar
  67   31   34 1
  68   32   81 1
  69   35   36 ar
  70   35   37 ar
  71   35   47 1
  72   36   42 1
  73   36   40 ar
  74   37   38 ar
  75   37   82 1
  76   38   39 ar
  77   38   83 1
  78   39   40 ar
  79   39   41 1
  80   40   84 1
  81   41   43 1
  82   42   44 1
  83   43   85 1
  84   43   86 1
  85   43   87 1
  86   44   45 1
  87   44   88 1
  88   44   89 1
  89   45   90 1
  90   45   91 1
  91   45   92 1
  92   46   93 1
  93   46   94 1
  94   46   95 1
  95   47   48 2
  96   47   49 2
  97   50   51 1
  98   51   52 1
  99   51   96 1
 100   51   97 1
 101   52   53 1
 102   52   54 1
 103   52   98 1

#	End of record

