#	Name: ASD05430731
#	Creating user name:	WinNT
#	Creation time:	15. 06. 2019 21:00

#	Modifying user name:	WinNT
#	Modification time:	15. 06. 2019 21:00

#	Program:	/corina/corina34_cracker 3.40 0067  02.08.2006

@<TRIPOS>MOLECULE
ASD05430731
  56   60    0    0    0
SMALL
NO_CHARGES


@<TRIPOS>ATOM
   1 C1            -0.0535     1.2227     0.0717 C.2     
   2 C2            -0.0970    -0.1641    -0.1322 C.2     
   3 C3            -1.4014    -0.8097    -0.2792 C.2     
   4 C4            -2.5124    -0.0526    -0.2139 C.2     
   5 N5            -2.4386     1.2961    -0.0148 N.am    
   6 C6            -1.2644     1.9360     0.1318 C.2     
   7 O7            -1.2492     3.1435     0.3082 O.2     
   8 C8            -3.6800     2.0716     0.0469 C.3     
   9 C9            -4.4696     1.8742    -1.2487 C.3     
  10 C10           -4.5075     1.6029     1.2159 C.ar    
  11 C11           -3.8862     1.1590     2.3679 C.ar    
  12 C12           -4.6456     0.7281     3.4427 C.ar    
  13 C13           -6.0274     0.7421     3.3629 C.ar    
  14 C14           -6.6486     1.1869     2.2087 C.ar    
  15 C15           -5.8872     1.6226     1.1373 C.ar    
  16 N16            1.2723     1.5800     0.1776 N.pl3   
  17 C17            2.0439     0.4556     0.0450 C.2     
  18 C18            1.2327    -0.6222    -0.1450 C.2     
  19 C19            3.5207     0.4181     0.0995 C.ar    
  20 C20            4.1951    -0.7947    -0.0499 C.ar    
  21 C21            5.5766    -0.8252     0.0012 C.ar    
  22 C22            6.2924     0.3541     0.2016 C.ar    
  23 C23            5.6205     1.5600     0.3506 C.ar    
  24 C24            4.2435     1.5966     0.2947 C.ar    
  25 N25            7.6932     0.3224     0.2533 N.pl3   
  26 C26            8.4546    -0.5112     1.0085 C.2     
  27 N27            9.7122    -0.2403     0.7872 N.2     
  28 C28            9.8015     0.7594    -0.1024 C.2     
  29 C29            8.5530     1.1228    -0.4532 C.2     
  30 C30           11.0782     1.3672    -0.6236 C.3     
  31 F31           -7.9972     1.2007     2.1294 F       
  32 F32           -4.0380     0.2938     4.5685 F       
  33 O33            6.2366    -2.0049    -0.1435 O.3     
  34 C34            5.4395    -3.1737    -0.3452 C.3     
  35 H35           -1.4717    -1.8757    -0.4378 H       
  36 H36           -3.4798    -0.5205    -0.3214 H       
  37 H37           -3.4425     3.1283     0.1703 H       
  38 H38           -4.7070     0.8176    -1.3720 H       
  39 H39           -5.3932     2.4512    -1.2028 H       
  40 H40           -3.8710     2.2132    -2.0942 H       
  41 H41           -2.8081     1.1478     2.4297 H       
  42 H42           -6.6205     0.4058     4.2006 H       
  43 H43           -6.3716     1.9701     0.2367 H       
  44 H44            1.6051     2.4796     0.3219 H       
  45 H45            1.5530    -1.6447    -0.2803 H       
  46 H46            3.6390    -1.7075    -0.2048 H       
  47 H47            6.1780     2.4718     0.5061 H       
  48 H48            3.7233     2.5359     0.4109 H       
  49 H49            8.0819    -1.2707     1.6798 H       
  50 H50            8.2813     1.8998    -1.1523 H       
  51 H51           11.3981     0.8303    -1.5166 H       
  52 H52           10.9072     2.4149    -0.8712 H       
  53 H53           11.8527     1.2961     0.1401 H       
  54 H54            4.7754    -3.3123     0.5080 H       
  55 H55            4.8462    -3.0568    -1.2521 H       
  56 H56            6.0887    -4.0435    -0.4454 H       
@<TRIPOS>BOND
   1    1    2 2
   2    1   16 1
   3    1    6 1
   4    2    3 1
   5    2   18 1
   6    3    4 2
   7    3   35 1
   8    4    5 1
   9    4   36 1
  10    5    6 am
  11    5    8 1
  12    6    7 2
  13    8    9 1
  14    8   10 1
  15    8   37 1
  16    9   38 1
  17    9   39 1
  18    9   40 1
  19   10   11 ar
  20   10   15 ar
  21   11   12 ar
  22   11   41 1
  23   12   13 ar
  24   12   32 1
  25   13   14 ar
  26   13   42 1
  27   14   15 ar
  28   14   31 1
  29   15   43 1
  30   16   17 1
  31   16   44 1
  32   17   18 2
  33   17   19 1
  34   18   45 1
  35   19   20 ar
  36   19   24 ar
  37   20   21 ar
  38   20   46 1
  39   21   22 ar
  40   21   33 1
  41   22   23 ar
  42   22   25 1
  43   23   24 ar
  44   23   47 1
  45   24   48 1
  46   25   26 1
  47   25   29 1
  48   26   27 2
  49   26   49 1
  50   27   28 1
  51   28   29 2
  52   28   30 1
  53   29   50 1
  54   30   51 1
  55   30   52 1
  56   30   53 1
  57   33   34 1
  58   34   54 1
  59   34   55 1
  60   34   56 1

#	End of record

