#	Name: ASD01209058
#	Creating user name:	WinNT
#	Creation time:	15. 06. 2019 19:10

#	Modifying user name:	WinNT
#	Modification time:	15. 06. 2019 19:10

#	Program:	/corina/corina34_cracker 3.40 0067  02.08.2006

@<TRIPOS>MOLECULE
ASD01209058
  47   48    0    0    0
SMALL
NO_CHARGES


@<TRIPOS>ATOM
   1 C1            -0.1334     1.3708    -0.3226 C.ar    
   2 C2            -0.1317    -0.0077    -0.2199 C.ar    
   3 C3             1.0568    -0.6843    -0.0183 C.ar    
   4 C4             2.2436     0.0176     0.0802 C.ar    
   5 C5             2.2420     1.3960    -0.0234 C.ar    
   6 C6             1.0534     2.0728    -0.2236 C.ar    
   7 S7            -1.6445    -0.9023    -0.3455 S.o2    
   8 O8            -1.4064    -2.0975     0.3853 O.2     
   9 O9            -2.6362     0.0260     0.0714 O.2     
  10 C10            3.5358     2.1612     0.0845 C.3     
  11 C11            3.4585     3.1173     1.2468 C.2     
  12 C12            4.7087     3.4872     2.0026 C.3     
  13 O13            2.3948     3.5871     1.5725 O.2     
  14 C14            5.3560     4.7105     1.3503 C.3     
  15 C15            4.3498     3.8131     3.4538 C.3     
  16 C16            3.7731     2.9466    -1.2070 C.3     
  17 C17            3.9708     1.9704    -2.3684 C.3     
  18 C18            4.0771     2.7303    -3.7150 C.3     
  19 C19            4.8758     1.7671    -4.6175 C.3     
  20 C20            5.6638     0.8566    -3.6989 C.2     
  21 C21            5.3502     1.2724    -2.2726 C.3     
  22 O22            6.4041    -0.0351    -4.0380 O.2     
  23 C23           -1.8125    -1.2613    -2.1156 C.3     
  24 H24           -1.0613     1.8991    -0.4846 H       
  25 H25            1.0580    -1.7613     0.0626 H       
  26 H26            3.1720    -0.5110     0.2384 H       
  27 H27            1.0522     3.1497    -0.3049 H       
  28 H28            4.3585     1.4637     0.2419 H       
  29 H29            5.4076     2.6510     1.9802 H       
  30 H30            4.6795     5.5620     1.4238 H       
  31 H31            6.2901     4.9433     1.8615 H       
  32 H32            5.5594     4.4976     0.3008 H       
  33 H33            3.8887     2.9416     3.9185 H       
  34 H34            5.2540     4.0806     4.0005 H       
  35 H35            3.6509     4.6493     3.4762 H       
  36 H36            2.9110     3.5822    -1.4093 H       
  37 H37            4.6633     3.5659    -1.0973 H       
  38 H38            3.1637     1.2384    -2.3990 H       
  39 H39            3.0863     2.9122    -4.1314 H       
  40 H40            4.6166     3.6683    -3.5839 H       
  41 H41            4.1931     1.1780    -5.2299 H       
  42 H42            5.5559     2.3319    -5.2552 H       
  43 H43            6.1041     1.9681    -1.9043 H       
  44 H44            5.2899     0.3973    -1.6255 H       
  45 H45           -0.9604    -1.8539    -2.4486 H       
  46 H46           -2.7327    -1.8196    -2.2874 H       
  47 H47           -1.8452    -0.3261    -2.6745 H       
@<TRIPOS>BOND
   1    1    2 ar
   2    1    6 ar
   3    1   24 1
   4    2    3 ar
   5    2    7 1
   6    3    4 ar
   7    3   25 1
   8    4    5 ar
   9    4   26 1
  10    5    6 ar
  11    5   10 1
  12    6   27 1
  13    7    8 2
  14    7    9 2
  15    7   23 1
  16   10   11 1
  17   10   16 1
  18   10   28 1
  19   11   12 1
  20   11   13 2
  21   12   14 1
  22   12   15 1
  23   12   29 1
  24   14   30 1
  25   14   31 1
  26   14   32 1
  27   15   33 1
  28   15   34 1
  29   15   35 1
  30   16   17 1
  31   16   36 1
  32   16   37 1
  33   17   18 1
  34   17   21 1
  35   17   38 1
  36   18   19 1
  37   18   39 1
  38   18   40 1
  39   19   20 1
  40   19   41 1
  41   19   42 1
  42   20   21 1
  43   20   22 2
  44   21   43 1
  45   21   44 1
  46   23   45 1
  47   23   46 1
  48   23   47 1

#	End of record

