#	Name: ASD01883654
#	Creating user name:	WinNT
#	Creation time:	15. 06. 2019 19:46

#	Modifying user name:	WinNT
#	Modification time:	15. 06. 2019 19:46

#	Program:	/corina/corina34_cracker 3.40 0067  02.08.2006

@<TRIPOS>MOLECULE
ASD01883654
  51   55    0    0    0
SMALL
NO_CHARGES


@<TRIPOS>ATOM
   1 C1            -0.4544     0.6163    -1.0963 C.2     
   2 C2            -0.0997    -0.1737     0.0049 C.2     
   3 C3            -0.9495    -0.2049     1.1260 C.2     
   4 C4            -2.0904     0.5100     1.1519 C.2     
   5 N5            -2.4748     1.2920     0.1032 N.pl3   
   6 C6            -1.7003     1.3830    -1.0249 C.2     
   7 C7            -3.5749     2.0999    -0.1035 C.2     
   8 C8            -3.4352     2.6458    -1.3446 C.2     
   9 N9            -2.2969     2.1982    -1.8778 N.2     
  10 N10            1.0685    -0.9123    -0.0097 N.pl3   
  11 C11            1.0266    -2.3802     0.0383 C.3     
  12 C12            1.9108    -2.8611     1.1932 C.3     
  13 C13            3.3162    -2.2773     1.0317 C.3     
  14 C14            3.2447    -0.7494     1.0820 C.3     
  15 C15            2.3754    -0.2447    -0.0797 C.3     
  16 C16            4.1982    -2.7757     2.1474 C.ar    
  17 C17            5.3340    -3.5077     1.8562 C.ar    
  18 C18            6.1430    -3.9649     2.8796 C.ar    
  19 C19            5.8163    -3.6897     4.1943 C.ar    
  20 C20            4.6809    -2.9569     4.4855 C.ar    
  21 C21            3.8743    -2.4960     3.4619 C.ar    
  22 C22           -4.6897     2.3285     0.8391 C.ar    
  23 C23           -5.2838     1.2502     1.4963 C.ar    
  24 C24           -6.3241     1.4694     2.3759 C.ar    
  25 C25           -6.7802     2.7569     2.6080 C.ar    
  26 C26           -6.1957     3.8327     1.9588 C.ar    
  27 C27           -5.1499     3.6268     1.0805 C.ar    
  28 F28           -4.5801     4.6758     0.4481 F       
  29 F29           -7.7992     2.9644     3.4704 F       
  30 C30            0.3813     0.6771    -2.2576 C.1     
  31 N31            1.0442     0.7254    -3.1788 N.1     
  32 H32           -0.6829    -0.8119     1.9786 H       
  33 H33           -2.7193     0.4623     2.0286 H       
  34 H34           -4.1274     3.3281    -1.8155 H       
  35 H35            0.0010    -2.7114     0.2010 H       
  36 H36            1.3996    -2.7873    -0.9015 H       
  37 H37            1.4853    -2.5286     2.1400 H       
  38 H38            1.9654    -3.9497     1.1807 H       
  39 H39            3.7314    -2.5901     0.0736 H       
  40 H40            2.8067    -0.4368     2.0299 H       
  41 H41            4.2487    -0.3350     0.9904 H       
  42 H42            2.8607    -0.4783    -1.0274 H       
  43 H43            2.2390     0.8332     0.0074 H       
  44 H44            5.5893    -3.7227     0.8290 H       
  45 H45            7.0301    -4.5374     2.6521 H       
  46 H46            6.4479    -4.0475     4.9940 H       
  47 H47            4.4255    -2.7422     5.5127 H       
  48 H48            2.9872    -1.9235     3.6894 H       
  49 H49           -4.9300     0.2458     1.3166 H       
  50 H50           -6.7843     0.6351     2.8844 H       
  51 H51           -6.5558     4.8340     2.1430 H       
@<TRIPOS>BOND
   1    1    2 2
   2    1   30 1
   3    1    6 1
   4    2    3 1
   5    2   10 1
   6    3    4 2
   7    3   32 1
   8    4    5 1
   9    4   33 1
  10    5    6 1
  11    5    7 1
  12    6    9 2
  13    7    8 2
  14    7   22 1
  15    8    9 1
  16    8   34 1
  17   10   11 1
  18   10   15 1
  19   11   12 1
  20   11   35 1
  21   11   36 1
  22   12   13 1
  23   12   37 1
  24   12   38 1
  25   13   14 1
  26   13   16 1
  27   13   39 1
  28   14   15 1
  29   14   40 1
  30   14   41 1
  31   15   42 1
  32   15   43 1
  33   16   17 ar
  34   16   21 ar
  35   17   18 ar
  36   17   44 1
  37   18   19 ar
  38   18   45 1
  39   19   20 ar
  40   19   46 1
  41   20   21 ar
  42   20   47 1
  43   21   48 1
  44   22   23 ar
  45   22   27 ar
  46   23   24 ar
  47   23   49 1
  48   24   25 ar
  49   24   50 1
  50   25   26 ar
  51   25   29 1
  52   26   27 ar
  53   26   51 1
  54   27   28 1
  55   30   31 3

#	End of record

