#	Name: ASD01040042
#	Creating user name:	WinNT
#	Creation time:	15. 06. 2019 18:58

#	Modifying user name:	WinNT
#	Modification time:	15. 06. 2019 18:58

#	Program:	/corina/corina34_cracker 3.40 0067  02.08.2006

@<TRIPOS>MOLECULE
ASD01040042
  45   48    0    0    0
SMALL
NO_CHARGES


@<TRIPOS>ATOM
   1 C1            -0.0186     1.5227     0.0104 C.3     
   2 C2             0.0021    -0.0041     0.0020 C.3     
   3 C3            -1.3539    -0.5739     0.3220 C.ar    
   4 C4            -1.6012    -1.8813    -0.0849 C.ar    
   5 C5            -2.8126    -2.4845     0.1782 C.ar    
   6 C6            -3.7945    -1.7865     0.8559 C.ar    
   7 C7            -3.5546    -0.4888     1.2573 C.ar    
   8 C8            -2.3372     0.1228     0.9857 C.ar    
   9 C9            -2.1695     1.5551     1.4293 C.3     
  10 C10           -0.7248     1.9658     1.2762 C.2     
  11 C11           -0.0974     2.6867     2.2137 C.2     
  12 C12           -0.8224     3.1012     3.4388 C.ar    
  13 C13           -1.9023     3.9786     3.3484 C.ar    
  14 C14           -2.5749     4.3617     4.4895 C.ar    
  15 C15           -2.1774     3.8752     5.7277 C.ar    
  16 O16           -2.8421     4.2546     6.8503 O.3     
  17 C17           -1.1025     3.0014     5.8211 C.ar    
  18 C18           -0.4295     2.6099     4.6831 C.ar    
  19 C19            1.3224     3.0707     2.0269 C.ar    
  20 C20            2.3115     2.0889     1.9816 C.ar    
  21 C21            3.6304     2.4489     1.8021 C.ar    
  22 C22            3.9740     3.7873     1.6669 C.ar    
  23 O23            5.2745     4.1388     1.4901 O.3     
  24 C24            2.9915     4.7673     1.7115 C.ar    
  25 C25            1.6707     4.4139     1.8904 C.ar    
  26 H26            1.0016     1.9062     0.0027 H       
  27 H27            0.3109    -0.3510    -0.9841 H       
  28 H28            0.7193    -0.3550     0.7440 H       
  29 H29           -0.8354    -2.4298    -0.6133 H       
  30 H30           -2.9939    -3.4991    -0.1444 H       
  31 H31           -4.7441    -2.2543     1.0696 H       
  32 H32           -4.3208     0.0573     1.7876 H       
  33 H33           -2.7975     2.2010     0.8157 H       
  34 H34           -2.4648     1.6485     2.4743 H       
  35 H35           -2.2115     4.3579     2.3856 H       
  36 H36           -3.4114     5.0413     4.4201 H       
  37 H37           -3.5836     3.6787     7.0820 H       
  38 H38           -0.7956     2.6249     6.7857 H       
  39 H39            0.4038     1.9266     4.7559 H       
  40 H40            2.0449     1.0477     2.0874 H       
  41 H41            4.3969     1.6889     1.7669 H       
  42 H42            5.5488     4.1784     0.5636 H       
  43 H43            3.2620     5.8076     1.6064 H       
  44 H44            0.9064     5.1763     1.9206 H       
  45 H45           -0.5580     1.8898    -0.8627 H       
@<TRIPOS>BOND
   1    1    2 1
   2    1   26 1
   3    1   45 1
   4    1   10 1
   5    2   27 1
   6    2   28 1
   7    2    3 1
   8    3    4 ar
   9    3    8 ar
  10    4   29 1
  11    4    5 ar
  12    5   30 1
  13    5    6 ar
  14    6   31 1
  15    6    7 ar
  16    7    8 ar
  17    7   32 1
  18    8    9 1
  19    9   10 1
  20    9   33 1
  21    9   34 1
  22   10   11 2
  23   11   12 1
  24   11   19 1
  25   12   18 ar
  26   12   13 ar
  27   13   14 ar
  28   13   35 1
  29   14   15 ar
  30   14   36 1
  31   15   16 1
  32   15   17 ar
  33   16   37 1
  34   17   38 1
  35   17   18 ar
  36   18   39 1
  37   19   25 ar
  38   19   20 ar
  39   20   40 1
  40   20   21 ar
  41   21   22 ar
  42   21   41 1
  43   22   24 ar
  44   22   23 1
  45   23   42 1
  46   24   25 ar
  47   24   43 1
  48   25   44 1

#	End of record

