#	Name: ASD03430044
#	Creating user name:	WinNT
#	Creation time:	15. 06. 2019 20:40

#	Modifying user name:	WinNT
#	Modification time:	15. 06. 2019 20:40

#	Program:	/corina/corina34_cracker 3.40 0067  02.08.2006

@<TRIPOS>MOLECULE
ASD03430044
  44   48    0    0    0
SMALL
NO_CHARGES


@<TRIPOS>ATOM
   1 C1            -0.0167     1.3821     0.0096 C.ar    
   2 C2             0.0021    -0.0041     0.0020 C.ar    
   3 C3             1.2028    -0.6819    -0.0154 C.ar    
   4 C4             2.4086     0.0128    -0.0156 C.ar    
   5 C5             2.3861     1.4038    -0.0121 C.ar    
   6 C6             1.1816     2.0867     0.0020 C.ar    
   7 O7             3.4712    -0.8421    -0.0055 O.3     
   8 C8             1.5509    -2.1459    -0.0488 C.3     
   9 C9             3.0364    -2.1462    -0.4356 C.3     
  10 C10            0.4282    -3.8600     1.0109 C.ar    
  11 C11            1.3158    -2.8190     1.2708 C.ar    
  12 C12            0.7173    -2.9069    -1.0393 C.2     
  13 N13            0.0977    -3.8850    -0.3492 N.am    
  14 O14            0.6203    -2.6847    -2.2272 O.2     
  15 C15            1.7814    -2.5977     2.5474 C.ar    
  16 C16            1.3689    -3.4130     3.5867 C.ar    
  17 C17            0.4885    -4.4499     3.3396 C.ar    
  18 C18            0.0187    -4.6754     2.0619 C.ar    
  19 C19           -0.7416    -4.7820    -0.9036 C.2     
  20 O20           -1.0036    -4.7326    -2.2228 O.3     
  21 O21           -1.2615    -5.6349    -0.2127 O.2     
  22 C22           -1.9168    -5.7300    -2.7514 C.3     
  23 C23           -2.0905    -5.5160    -4.2563 C.3     
  24 O24           -1.2112     2.0356     0.0189 O.3     
  25 C25           -1.1865     3.4163     0.3973 C.3     
  26 C26           -0.0349     4.0990    -0.3530 C.3     
  27 O27            1.1867     3.4483     0.0116 O.3     
  28 H28           -0.9268    -0.5549     0.0101 H       
  29 H29            3.3148     1.9551    -0.0199 H       
  30 H30            3.1557    -2.2581    -1.5132 H       
  31 H31            3.5751    -2.9293     0.0980 H       
  32 H32            2.4695    -1.7873     2.7378 H       
  33 H33            1.7341    -3.2399     4.5882 H       
  34 H34            0.1671    -5.0868     4.1505 H       
  35 H35           -0.6690    -5.4873     1.8768 H       
  36 H36           -1.5118    -6.7257    -2.5703 H       
  37 H37           -2.8837    -5.6356    -2.2570 H       
  38 H38           -2.4954    -4.5204    -4.4374 H       
  39 H39           -1.1236    -5.6104    -4.7507 H       
  40 H40           -2.7760    -6.2648    -4.6531 H       
  41 H41           -2.1316     3.8882     0.1283 H       
  42 H42           -1.0259     3.5001     1.4721 H       
  43 H43           -0.1920     4.0089    -1.4279 H       
  44 H44            0.0119     5.1519    -0.0748 H       
@<TRIPOS>BOND
   1    1    2 ar
   2    1    6 ar
   3    1   24 1
   4    2    3 ar
   5    2   28 1
   6    3    4 ar
   7    3    8 1
   8    4    5 ar
   9    4    7 1
  10    5    6 ar
  11    5   29 1
  12    6   27 1
  13    7    9 1
  14    8    9 1
  15    8   11 1
  16    8   12 1
  17    9   30 1
  18    9   31 1
  19   10   11 ar
  20   10   13 1
  21   10   18 ar
  22   11   15 ar
  23   12   13 am
  24   12   14 2
  25   13   19 am
  26   15   16 ar
  27   15   32 1
  28   16   17 ar
  29   16   33 1
  30   17   18 ar
  31   17   34 1
  32   18   35 1
  33   19   20 1
  34   19   21 2
  35   20   22 1
  36   22   23 1
  37   22   36 1
  38   22   37 1
  39   23   38 1
  40   23   39 1
  41   23   40 1
  42   24   25 1
  43   25   26 1
  44   25   41 1
  45   25   42 1
  46   26   27 1
  47   26   43 1
  48   26   44 1

#	End of record

