#	Name: ASD01880353
#	Creating user name:	WinNT
#	Creation time:	15. 06. 2019 19:40

#	Modifying user name:	WinNT
#	Modification time:	15. 06. 2019 19:40

#	Program:	/corina/corina34_cracker 3.40 0067  02.08.2006

@<TRIPOS>MOLECULE
ASD01880353
  38   39    0    0    0
SMALL
NO_CHARGES


@<TRIPOS>ATOM
   1 C1            -0.0158     1.3166     0.0093 C.ar    
   2 N2             0.0021    -0.0041     0.0020 N.ar    
   3 C3            -1.1218    -0.7055     0.0094 C.ar    
   4 C4            -2.3611    -0.0158     0.0254 C.ar    
   5 C5            -2.3234     1.3812     0.0325 C.ar    
   6 N6            -1.1363     2.0007     0.0291 N.ar    
   7 C7            -3.7205    -0.5227     0.0357 C.2     
   8 C8            -4.6572     0.4056     0.0497 C.2     
   9 S9            -3.9623     2.0156     0.0517 S.3     
  10 C10           -6.1367     0.1192     0.0623 C.3     
  11 N11           -1.0871    -2.0883     0.0012 N.pl3   
  12 C12            0.1995    -2.7886    -0.0158 C.3     
  13 C13           -0.0423    -4.2994    -0.0220 C.3     
  14 C14            1.6912    -5.5988     3.5178 C.2     
  15 C15            1.1439    -5.1864     2.3788 C.2     
  16 C16            1.8297    -5.4332     1.1019 C.2     
  17 C17            1.2812    -5.0199    -0.0395 C.2     
  18 C18            3.0147    -6.3193     3.5003 C.3     
  19 C19            1.2933     2.0630     0.0008 C.3     
  20 F20            1.9114    -5.2466    -1.2128 F       
  21 H21           -3.9477    -1.5785     0.0318 H       
  22 H22           -6.4835     0.0446     1.0929 H       
  23 H23           -6.6674     0.9266    -0.4421 H       
  24 H24           -6.3292    -0.8209    -0.4548 H       
  25 H25           -1.9147    -2.5942     0.0067 H       
  26 H26            0.7553    -2.5060    -0.9099 H       
  27 H27            0.7733    -2.5161     0.8700 H       
  28 H28           -0.5980    -4.5821     0.8721 H       
  29 H29           -0.6160    -4.5719    -0.9078 H       
  30 H30            1.1874    -5.4175     4.4557 H       
  31 H31            0.1954    -4.6700     2.3913 H       
  32 H32            2.7782    -5.9495     1.0894 H       
  33 H33            2.9254    -7.2290     2.9065 H       
  34 H34            3.7747    -5.6725     3.0619 H       
  35 H35            3.3014    -6.5775     4.5197 H       
  36 H36            1.5991     2.2485    -1.0289 H       
  37 H37            1.1731     3.0133     0.5209 H       
  38 H38            2.0546     1.4670     0.5042 H       
@<TRIPOS>BOND
   1    1    2 ar
   2    1   19 1
   3    1    6 ar
   4    2    3 ar
   5    3    4 ar
   6    3   11 1
   7    4    5 ar
   8    4    7 1
   9    5    6 ar
  10    5    9 1
  11    7    8 2
  12    7   21 1
  13    8    9 1
  14    8   10 1
  15   10   22 1
  16   10   23 1
  17   10   24 1
  18   11   12 1
  19   11   25 1
  20   12   13 1
  21   12   26 1
  22   12   27 1
  23   13   17 1
  24   13   28 1
  25   13   29 1
  26   14   15 2
  27   14   18 1
  28   14   30 1
  29   15   16 1
  30   15   31 1
  31   16   17 2
  32   16   32 1
  33   17   20 1
  34   18   33 1
  35   18   34 1
  36   18   35 1
  37   19   36 1
  38   19   37 1
  39   19   38 1

#	End of record

