#	Name: ASD01811455
#	Creating user name:	WinNT
#	Creation time:	15. 06. 2019 19:26

#	Modifying user name:	WinNT
#	Modification time:	15. 06. 2019 19:26

#	Program:	/corina/corina34_cracker 3.40 0067  02.08.2006

@<TRIPOS>MOLECULE
ASD01811455
  73   77    0    0    0
SMALL
NO_CHARGES


@<TRIPOS>ATOM
   1 C1            -7.3214     2.2133    -4.0019 C.1     
   2 C2            -6.3439     3.0076    -3.3205 C.ar    
   3 C3            -5.1730     2.4183    -2.8394 C.ar    
   4 C4            -4.2356     3.1893    -2.1839 C.ar    
   5 C5            -4.4538     4.5435    -2.0022 C.ar    
   6 C6            -5.6121     5.1338    -2.4759 C.ar    
   7 C7            -6.5548     4.3759    -3.1392 C.ar    
   8 N8            -8.0969     1.5833    -4.5425 N.1     
   9 N9            -2.4098     7.7982    -0.2276 N.am    
  10 C10           -1.8546     7.3097    -1.4972 C.3     
  11 C11           -2.9246     6.4838    -2.2180 C.3     
  12 C12           -3.4254     5.3792    -1.2846 C.3     
  13 C13           -4.0572     6.0078    -0.0405 C.3     
  14 C14           -3.0000     6.8284     0.7050 C.3     
  15 C15           -2.3735     9.1104     0.0781 C.2     
  16 C16           -3.0190     9.5994     1.3152 C.ar    
  17 C17           -3.9802    10.6109     1.2505 C.ar    
  18 C18           -4.5837    11.0684     2.4046 C.ar    
  19 C19           -4.2422    10.5303     3.6299 C.ar    
  20 C20           -3.2831     9.5189     3.7087 C.ar    
  21 C21           -2.6742     9.0484     2.5475 C.ar    
  22 O22           -1.8100     9.8917    -0.6632 O.2     
  23 C23           -4.9060    11.0364     4.8846 C.3     
  24 C24           -4.0310    12.1161     5.5245 C.3     
  25 C25           -4.3588    11.2043    -0.0820 C.3     
  26 C26           -5.3450    10.2750    -0.7924 C.3     
  27 C27           -1.1354     6.7287     7.3383 C.3     
  28 C28           -1.9729     7.7247     6.5751 C.2     
  29 C29           -2.8596     8.5695     7.1495 C.2     
  30 C30           -3.1294     8.6398     8.6324 C.3     
  31 C31           -2.6142     7.3542     9.2909 C.3     
  32 N32           -1.2729     7.0489     8.7709 N.am    
  33 C33           -2.9182     8.9441     5.0221 C.2     
  34 N34           -1.9994     7.9549     5.2344 N.pl3   
  35 N35           -3.4234     9.2985     6.1849 N.2     
  36 C36           -0.1972     7.0612     9.5828 C.2     
  37 O37           -0.3282     7.3268    10.7589 O.2     
  38 C38            1.1683     6.7448     9.0293 C.3     
  39 H39           -5.0018     1.3612    -2.9800 H       
  40 H40           -3.3296     2.7348    -1.8113 H       
  41 H41           -5.7762     6.1913    -2.3304 H       
  42 H42           -7.4562     4.8389    -3.5127 H       
  43 H43           -1.5658     8.1566    -2.1196 H       
  44 H44           -0.9833     6.6855    -1.2988 H       
  45 H45           -3.7570     7.1302    -2.4962 H       
  46 H46           -2.4958     6.0359    -3.1145 H       
  47 H47           -2.5881     4.7480    -0.9869 H       
  48 H48           -4.8789     6.6587    -0.3392 H       
  49 H49           -4.4346     5.2212     0.6129 H       
  50 H50           -2.2221     6.1649     1.0830 H       
  51 H51           -3.4670     7.3577     1.5356 H       
  52 H52           -5.3260    11.8509     2.3493 H       
  53 H53           -1.9349     8.2631     2.6026 H       
  54 H54           -5.8797    11.4582     4.6357 H       
  55 H55           -5.0356    10.2115     5.5851 H       
  56 H56           -3.9013    12.9411     4.8240 H       
  57 H57           -4.5110    12.4822     6.4321 H       
  58 H58           -3.0572    11.6943     5.7734 H       
  59 H59           -4.8239    12.1779     0.0727 H       
  60 H60           -3.4648    11.3219    -0.6945 H       
  61 H61           -4.8800     9.3015    -0.9472 H       
  62 H62           -6.2390    10.1574    -0.1800 H       
  63 H63           -5.6189    10.7042    -1.7562 H       
  64 H64           -1.4958     5.7177     7.1478 H       
  65 H65           -0.0912     6.8141     7.0375 H       
  66 H66           -2.6124     9.5002     9.0573 H       
  67 H67           -4.2015     8.7339     8.8045 H       
  68 H68           -2.5631     7.4934    10.3708 H       
  69 H69           -3.2903     6.5308     9.0606 H       
  70 H70           -1.4686     7.5038     4.5594 H       
  71 H71            1.6436     7.6642     8.6873 H       
  72 H72            1.7790     6.2880     9.8080 H       
  73 H73            1.0699     6.0536     8.1923 H       
@<TRIPOS>BOND
   1    1    2 1
   2    1    8 3
   3    2    3 ar
   4    2    7 ar
   5    3    4 ar
   6    3   39 1
   7    4    5 ar
   8    4   40 1
   9    5    6 ar
  10    5   12 1
  11    6    7 ar
  12    6   41 1
  13    7   42 1
  14    9   10 1
  15    9   14 1
  16    9   15 am
  17   10   11 1
  18   10   43 1
  19   10   44 1
  20   11   12 1
  21   11   45 1
  22   11   46 1
  23   12   13 1
  24   12   47 1
  25   13   14 1
  26   13   48 1
  27   13   49 1
  28   14   50 1
  29   14   51 1
  30   15   16 1
  31   15   22 2
  32   16   17 ar
  33   16   21 ar
  34   17   18 ar
  35   17   25 1
  36   18   19 ar
  37   18   52 1
  38   19   20 ar
  39   19   23 1
  40   20   21 ar
  41   20   33 1
  42   21   53 1
  43   23   24 1
  44   23   54 1
  45   23   55 1
  46   24   56 1
  47   24   57 1
  48   24   58 1
  49   25   26 1
  50   25   59 1
  51   25   60 1
  52   26   61 1
  53   26   62 1
  54   26   63 1
  55   27   28 1
  56   27   32 1
  57   27   64 1
  58   27   65 1
  59   28   29 2
  60   28   34 1
  61   29   30 1
  62   29   35 1
  63   30   31 1
  64   30   66 1
  65   30   67 1
  66   31   32 1
  67   31   68 1
  68   31   69 1
  69   32   36 am
  70   33   34 1
  71   33   35 2
  72   34   70 1
  73   36   37 2
  74   36   38 1
  75   38   71 1
  76   38   72 1
  77   38   73 1

#	End of record

