#	Name: ASD04590742
#	Creating user name:	WinNT
#	Creation time:	15. 06. 2019 20:51

#	Modifying user name:	WinNT
#	Modification time:	15. 06. 2019 20:51

#	Program:	/corina/corina34_cracker 3.40 0067  02.08.2006

@<TRIPOS>MOLECULE
ASD04590742
  40   41    0    0    0
SMALL
NO_CHARGES


@<TRIPOS>ATOM
   1 C1            -0.7651    -0.6765    -1.1072 C.2     
   2 C2             0.0021    -0.0041     0.0020 C.3     
   3 O3            -0.2049    -1.4515    -1.8456 O.2     
   4 O4            -2.0722    -0.4187    -1.2713 O.3     
   5 N5             1.3603    -0.5602     0.0650 N.3     
   6 C6             1.3333    -1.9706     0.4767 C.3     
   7 C7             2.7563    -2.5335     0.4532 C.3     
   8 N8             3.6084    -1.7419     1.3514 N.3     
   9 C9             3.6354    -0.3314     0.9397 C.3     
  10 C10            2.2124     0.2315     0.9633 C.3     
  11 C11            4.9666    -2.2980     1.4144 C.3     
  12 C12            6.0255    -1.4173     3.5101 C.ar    
  13 C13            5.8708    -1.3346     2.1394 C.ar    
  14 C14            6.5579    -0.3547     1.4391 C.ar    
  15 C15            7.3788     0.5094     2.1468 C.ar    
  16 C16            7.4845     0.3664     3.5188 C.ar    
  17 N17            6.8154    -0.5787     4.1519 N.ar    
  18 Cl18           8.5090     1.4418     4.4175 Cl      
  19 C19           -2.7472    -1.1021    -2.3601 C.3     
  20 C20           -4.2191    -0.6852    -2.3893 C.3     
  21 H21            0.0567     1.0672    -0.1916 H       
  22 H22           -0.5054    -0.1763     0.9511 H       
  23 H23            0.9286    -2.0472     1.4860 H       
  24 H24            0.7063    -2.5382    -0.2108 H       
  25 H25            2.7425    -3.5713     0.7860 H       
  26 H26            3.1510    -2.4820    -0.5616 H       
  27 H27            4.2624     0.2362     1.6272 H       
  28 H28            4.0401    -0.2549    -0.0695 H       
  29 H29            2.2262     1.2693     0.6304 H       
  30 H30            1.8177     0.1799     1.9780 H       
  31 H31            4.9458    -3.2483     1.9479 H       
  32 H32            5.3413    -2.4571     0.4033 H       
  33 H33            5.4900    -2.1751     4.0628 H       
  34 H34            6.4562    -0.2671     0.3675 H       
  35 H35            7.9291     1.2841     1.6336 H       
  36 H36           -2.2750    -0.8346    -3.3053 H       
  37 H37           -2.6777    -2.1797    -2.2113 H       
  38 H38           -4.6913    -0.9527    -1.4441 H       
  39 H39           -4.2886     0.3924    -2.5381 H       
  40 H40           -4.7258    -1.1983    -3.2067 H       
@<TRIPOS>BOND
   1    1    2 1
   2    1    3 2
   3    1    4 1
   4    2    5 1
   5    2   21 1
   6    2   22 1
   7    4   19 1
   8    5    6 1
   9    5   10 1
  10    6    7 1
  11    6   23 1
  12    6   24 1
  13    7    8 1
  14    7   25 1
  15    7   26 1
  16    8    9 1
  17    8   11 1
  18    9   10 1
  19    9   27 1
  20    9   28 1
  21   10   29 1
  22   10   30 1
  23   11   13 1
  24   11   31 1
  25   11   32 1
  26   12   13 ar
  27   12   17 ar
  28   12   33 1
  29   13   14 ar
  30   14   15 ar
  31   14   34 1
  32   15   16 ar
  33   15   35 1
  34   16   17 ar
  35   16   18 1
  36   19   20 1
  37   19   36 1
  38   19   37 1
  39   20   38 1
  40   20   39 1
  41   20   40 1

#	End of record

