#	Name: ASD06590012
#	Creating user name:	WinNT
#	Creation time:	15. 06. 2019 21:06

#	Modifying user name:	WinNT
#	Modification time:	15. 06. 2019 21:06

#	Program:	/corina/corina34_cracker 3.40 0067  02.08.2006

@<TRIPOS>MOLECULE
ASD06590012
 356  355    0    0    0
SMALL
NO_CHARGES


@<TRIPOS>ATOM
   1 C1            -9.5288     9.7813    16.7416 C.2     
   2 O2            -8.9495     8.9295    16.1014 O.2     
   3 N3            -7.3369    10.3529    17.6122 N.am    
   4 C4            -8.7443    10.7584    17.5786 C.3     
   5 C5            -8.8575    12.1575    16.9697 C.3     
   6 C6            -8.1824    13.1724    17.8945 C.3     
   7 C7            -8.1696    12.1762    15.6032 C.3     
   8 C8           -12.9528     9.6140    15.4722 C.2     
   9 O9           -13.2357    10.7000    15.9321 O.2     
  10 N10          -10.8737     9.8574    16.7000 N.am    
  11 C11          -11.6302     8.9747    15.8084 C.3     
  12 C12          -11.8740     7.6342    16.5044 C.3     
  13 C13          -10.5363     6.9279    16.7338 C.3     
  14 C14          -10.7801     5.5873    17.4298 C.3     
  15 N15           -9.4992     4.9111    17.6494 N.pl3   
  16 C16           -9.4675     3.6816    18.2638 C.2     
  17 N17           -8.3278     3.0799    18.4592 N.2     
  18 N18          -10.6377     3.0867    18.6721 N.pl3   
  19 C19          -16.1036     8.5307    13.9683 C.2     
  20 O20          -15.7724     7.3640    13.9797 O.2     
  21 N21          -13.8213     8.9789    14.6605 N.am    
  22 C22          -15.1070     9.6004    14.3337 C.3     
  23 C23          -14.9264    10.5545    13.1513 C.3     
  24 C24          -13.9146    11.6406    13.5224 C.3     
  25 C25          -14.4147     9.7735    11.9393 C.3     
  26 C26          -19.3811     8.3335    12.3929 C.2     
  27 O27          -19.5455     9.5264    12.2485 O.2     
  28 N28          -17.3629     8.8705    13.6288 N.am    
  29 C29          -18.3612     7.8275    13.3803 C.3     
  30 C30          -19.0583     7.4656    14.6933 C.3     
  31 C31          -20.0097     6.2905    14.4585 C.3     
  32 C32          -19.2045     5.0576    14.0433 C.3     
  33 C33          -20.7755     5.9889    15.7483 C.3     
  34 C34          -22.1298     6.9321    10.4323 C.2     
  35 O35          -22.1288     5.8982    11.0662 O.2     
  36 N36          -20.1106     7.4604    11.6705 N.am    
  37 C37          -21.0409     7.9509    10.6506 C.3     
  38 C38          -20.2861     8.1795     9.3395 C.3     
  39 C39          -24.7338     6.3434     7.9352 C.2     
  40 O40          -24.2992     7.2026     7.1979 O.2     
  41 N41          -23.1047     7.1700     9.5325 N.am    
  42 C42          -24.1632     6.1797     9.3203 C.3     
  43 C43          -25.2703     6.3867    10.3558 C.3     
  44 C44          -24.6681     6.3443    11.7617 C.3     
  45 O45          -25.8915     7.6557    10.1418 O.3     
  46 C46          -27.6924     5.1638     6.1412 C.2     
  47 O47          -28.1856     4.6988     7.1469 O.2     
  48 N48          -25.7272     5.5348     7.5158 N.am    
  49 C49          -26.2820     5.6940     6.1693 C.3     
  50 C50          -25.4246     4.9157     5.1692 C.3     
  51 C51          -24.0265     5.5339     5.1065 C.3     
  52 C52          -23.1691     4.7557     4.1065 C.3     
  53 C53          -21.7709     5.3739     4.0438 C.3     
  54 N54          -20.9477     4.6266     3.0836 N.3     
  55 C55          -30.0160     4.1342     3.5334 C.2     
  56 O56          -29.3872     4.6000     2.6069 O.2     
  57 N57          -28.4057     5.2064     4.9984 N.am    
  58 C58          -29.7346     4.5925     4.9411 C.3     
  59 C59          -30.7887     5.6178     5.3640 C.3     
  60 C60          -32.1761     4.9753     5.3087 C.3     
  61 C61          -32.2598     3.8525     6.3448 C.3     
  62 C62          -33.2399     6.0316     5.6144 C.3     
  63 C63          -32.5816     2.1813     1.8109 C.2     
  64 O64          -33.3464     2.2540     2.7494 O.2     
  65 N65          -30.9665     3.2066     3.3040 N.am    
  66 C66          -31.1675     2.6829     1.9506 C.3     
  67 C67          -30.1910     1.5323     1.6988 C.3     
  68 C68          -28.7574     2.0667     1.7173 C.3     
  69 C69          -27.7809     0.9161     1.4654 C.3     
  70 N70          -26.4083     1.4277     1.4832 N.pl3   
  71 C71          -25.3527     0.5711     1.2785 C.2     
  72 N72          -24.1314     1.0263     1.2943 N.2     
  73 N73          -25.5851    -0.7657     1.0572 N.pl3   
  74 C74          -34.4281     0.1162    -0.5743 C.2     
  75 O75          -33.4195    -0.1928    -1.1727 O.2     
  76 N76          -32.9966     1.6518     0.6430 N.am    
  77 C77          -34.3714     1.1641     0.5073 C.3     
  78 C78          -35.2916     2.3292     0.1374 C.3     
  79 C79          -35.3306     3.3342     1.2904 C.3     
  80 C80          -36.2370     4.4817     0.9261 C.2     
  81 O81          -36.7945     4.4944    -0.1458 O.2     
  82 O82          -36.4249     5.4897     1.7923 O.3     
  83 C83          -37.0495    -1.5569    -2.4958 C.2     
  84 O84          -37.9168    -0.8345    -2.0523 O.2     
  85 N85          -35.5997    -0.4775    -0.8765 N.am    
  86 C86          -35.6549    -1.4962    -1.9279 C.3     
  87 C87          -35.2848    -2.8585    -1.3380 C.3     
  88 C88          -33.8631    -2.8014    -0.7754 C.3     
  89 O89          -36.1988    -3.1881    -0.2902 O.3     
  90 C90          -39.0618    -4.0103    -4.0891 C.2     
  91 O91          -38.2427    -4.8553    -3.7961 O.2     
  92 N92          -37.3328    -2.4138    -3.4968 N.am    
  93 C93          -38.7100    -2.5492    -3.9774 C.3     
  94 C94          -38.8383    -1.8873    -5.3508 C.3     
  95 C95          -38.6248    -0.4017    -5.2144 C.2     
  96 O96          -38.3424     0.0738    -4.1350 O.2     
  97 N97          -38.7476     0.3985    -6.2920 N.am    
  98 C98          -41.7254    -5.9745    -5.6416 C.2     
  99 O99          -42.1769    -5.0087    -6.2197 O.2     
 100 N100         -40.2866    -4.3779    -4.5146 N.am    
 101 C101         -40.6286    -5.7983    -4.6232 C.3     
 102 C102         -41.1070    -6.3130    -3.2642 C.3     
 103 C103         -43.6224    -8.8377    -7.0116 C.2     
 104 O104         -43.0399    -9.6554    -6.3312 O.2     
 105 N105         -42.2045    -7.2053    -5.9099 N.am    
 106 C106         -43.2707    -7.3766    -6.8999 C.3     
 107 C107         -45.5196   -10.9275    -9.3346 C.2     
 108 O108         -45.6445   -10.0235   -10.1334 O.2     
 109 N109         -44.5844    -9.2357    -7.8675 N.am    
 110 C110         -44.9264   -10.6561    -7.9761 C.3     
 111 C111         -45.9442   -11.0199    -6.8932 C.3     
 112 C112         -45.2999   -10.8630    -5.5144 C.3     
 113 C113         -46.3176   -11.2267    -4.4315 C.3     
 114 N114         -45.7007   -11.0765    -3.1112 N.pl3   
 115 C115         -46.4285   -11.3494    -1.9773 C.2     
 116 N116         -45.8796   -11.2157    -0.8026 N.2     
 117 N117         -47.7354   -11.7634    -2.0823 N.pl3   
 118 C118         -47.3736   -13.6560   -10.9098 C.2     
 119 O119         -47.5096   -14.2451    -9.8584 O.2     
 120 N120         -45.9114   -12.1749    -9.6618 N.am    
 121 C121         -46.4882   -12.4387   -10.9824 C.3     
 122 C122         -45.3636   -12.6855   -11.9900 C.3     
 123 O123         -44.6624   -13.8800   -11.6382 O.3     
 124 C124         -47.8569   -16.5085   -12.1351 C.2     
 125 O125         -46.6664   -16.3244   -12.2750 O.2     
 126 N126         -48.0145   -14.0900   -12.0132 N.am    
 127 C127         -48.7868   -15.3341   -11.9700 C.3     
 128 C128         -49.8157   -15.3352   -13.1024 C.3     
 129 C129         -50.7963   -14.2105   -12.8912 C.2     
 130 O130         -50.6339   -13.4299   -11.9833 O.2     
 131 O131         -51.8500   -14.0758   -13.7117 O.3     
 132 C132         -48.2093   -20.0765   -12.8480 C.2     
 133 O133         -49.4174   -20.0235   -12.9408 O.2     
 134 N134         -48.3484   -17.7635   -12.1272 N.am    
 135 C135         -47.4445   -18.9051   -12.2877 C.3     
 136 C136         -46.8554   -19.2843   -10.9275 C.3     
 137 C137         -46.0756   -18.0963   -10.3605 C.3     
 138 O138         -47.9123   -19.6320   -10.0308 O.3     
 139 C139         -48.6787   -23.1940   -12.4891 C.2     
 140 O140         -48.3562   -22.8383   -11.3803 O.2     
 141 N141         -47.5508   -21.1831   -13.2460 N.am    
 142 C142         -48.2998   -22.3623   -13.6873 C.3     
 143 C143         -47.4303   -23.1947   -14.6317 C.3     
 144 C144         -47.1491   -22.3941   -15.9048 C.3     
 145 C145         -46.2796   -23.2266   -16.8491 C.3     
 146 N146         -46.0103   -22.4599   -18.0681 N.pl3   
 147 C147         -45.2436   -23.0076   -19.0694 C.2     
 148 N148         -44.7564   -24.2090   -18.9340 N.2     
 149 N149         -44.9909   -22.2882   -20.2133 N.pl3   
 150 O150         -49.3745   -24.3301   -12.6537 O.3     
 151 C151          -6.5529    10.7246    18.6436 C.2     
 152 O152          -7.0125    11.3947    19.5439 O.2     
 153 C153           9.7947    11.1833    27.7942 C.3     
 154 C154           8.3249    11.6068    27.7591 C.3     
 155 C155           7.6661    11.0581    26.4919 C.3     
 156 C156           6.1963    11.4816    26.4568 C.3     
 157 C157           5.5376    10.9330    25.1896 C.3     
 158 C158           4.0678    11.3565    25.1545 C.3     
 159 C159           3.4090    10.8079    23.8873 C.3     
 160 C160           1.9392    11.2314    23.8522 C.3     
 161 C161           1.2805    10.6828    22.5850 C.3     
 162 C162          -0.1893    11.1063    22.5499 C.3     
 163 C163          -0.8481    10.5577    21.2827 C.3     
 164 C164          -2.3179    10.9812    21.2476 C.3     
 165 C165          -2.9767    10.4325    19.9804 C.3     
 166 C166          -4.4465    10.8560    19.9453 C.3     
 167 C167          -5.1052    10.3074    18.6781 C.3     
 168 H168          -6.9693     9.8170    16.8921 H       
 169 H169          -9.1432    10.7703    18.5929 H       
 170 H170          -9.9092    12.4178    16.8506 H       
 171 H171          -7.1107    12.9764    17.9283 H       
 172 H172          -8.3558    14.1799    17.5164 H       
 173 H173          -8.5998    13.0838    18.8975 H       
 174 H174          -8.6505    11.4531    14.9444 H       
 175 H175          -8.2503    13.1729    15.1694 H       
 176 H176          -7.1179    11.9158    15.7223 H       
 177 H177         -11.3409    10.4966    17.2605 H       
 178 H178         -11.0627     8.8106    14.8924 H       
 179 H179         -12.3631     7.8062    17.4632 H       
 180 H180         -12.5116     7.0102    15.8781 H       
 181 H181         -10.0472     6.7558    15.7750 H       
 182 H182          -9.8987     7.5518    17.3601 H       
 183 H183         -11.2692     5.7594    18.3885 H       
 184 H184         -11.4177     4.9634    16.8034 H       
 185 H185          -8.6735     5.3307    17.3613 H       
 186 H186          -8.3054     2.2124    18.8926 H       
 187 H187         -11.4858     3.5345    18.5267 H       
 188 H188         -10.6153     2.2193    19.1056 H       
 189 H189         -13.5950     8.1104    14.2927 H       
 190 H190         -15.4715    10.1569    15.1972 H       
 191 H191         -15.8830    11.0169    12.9082 H       
 192 H192         -13.7859    12.3203    12.6800 H       
 193 H193         -14.2791    12.1971    14.3858 H       
 194 H194         -12.9580    11.1782    13.7655 H       
 195 H195         -15.1356     8.9997    11.6750 H       
 196 H196         -14.2861    10.4532    11.0970 H       
 197 H197         -13.4581     9.3111    12.1825 H       
 198 H198         -17.6081     9.8056    13.5489 H       
 199 H199         -17.8698     6.9435    12.9741 H       
 200 H200         -18.3113     7.1855    15.4360 H       
 201 H201         -19.6241     8.3249    15.0531 H       
 202 H202         -20.7154     6.5467    13.6683 H       
 203 H203         -18.4367     4.8565    14.7903 H       
 204 H204         -19.8703     4.1980    13.9661 H       
 205 H205         -18.7330     5.2398    13.0776 H       
 206 H206         -21.3491     6.8673    16.0441 H       
 207 H207         -21.4533     5.1518    15.5811 H       
 208 H208         -20.0698     5.7328    16.5385 H       
 209 H209         -20.0197     6.5072    11.8258 H       
 210 H210         -21.4833     8.8897    10.9836 H       
 211 H211         -19.8438     7.2406     9.0064 H       
 212 H212         -20.9783     8.5444     8.5806 H       
 213 H213         -19.4986     8.9163     9.4974 H       
 214 H214         -23.1054     7.9970     9.0255 H       
 215 H215         -23.7492     5.1770     9.4266 H       
 216 H216         -26.0143     5.5965    10.2552 H       
 217 H217         -23.9242     7.1346    11.8623 H       
 218 H218         -25.4569     6.4918    12.4994 H       
 219 H219         -24.1943     5.3764    11.9250 H       
 220 H220         -25.2871     8.4070    10.2161 H       
 221 H221         -26.0749     4.8476     8.1055 H       
 222 H222         -26.2855     6.7502     5.9002 H       
 223 H223         -25.3483     3.8761     5.4877 H       
 224 H224         -25.8862     4.9605     4.1827 H       
 225 H225         -24.1028     6.5735     4.7880 H       
 226 H226         -23.5649     5.4891     6.0930 H       
 227 H227         -23.0928     3.7161     4.4250 H       
 228 H228         -23.6307     4.8005     3.1200 H       
 229 H229         -21.8473     6.4135     3.7253 H       
 230 H230         -21.3094     5.3291     5.0303 H       
 231 H231         -20.0187     5.0158     3.0241 H       
 232 H232         -20.9147     3.6466     3.3214 H       
 233 H233         -28.0391     5.6434     4.2139 H       
 234 H234         -29.7690     3.7369     5.6155 H       
 235 H235         -30.5832     5.9518     6.3810 H       
 236 H236         -30.7566     6.4719     4.6876 H       
 237 H237         -32.3471     4.5648     4.3136 H       
 238 H238         -31.9821     4.2409     7.3247 H       
 239 H239         -33.2790     3.4677     6.3820 H       
 240 H240         -31.5781     3.0491     6.0658 H       
 241 H241         -33.1802     6.8315     4.8763 H       
 242 H242         -34.2283     5.5739     5.5750 H       
 243 H243         -33.0689     6.4421     6.6096 H       
 244 H244         -31.5175     2.8857     4.0349 H       
 245 H245         -30.9898     3.4758     1.2241 H       
 246 H246         -30.3081     0.7792     2.4780 H       
 247 H247         -30.3994     1.0850     0.7269 H       
 248 H248         -28.6403     2.8198     0.9380 H       
 249 H249         -28.5490     2.5140     2.6891 H       
 250 H250         -27.8981     0.1630     2.2447 H       
 251 H251         -27.9894     0.4687     0.4936 H       
 252 H252         -26.2443     2.3709     1.6393 H       
 253 H253         -23.3866     0.4219     1.1499 H       
 254 H254         -26.4940    -1.1045     1.0455 H       
 255 H255         -24.8403    -1.3702     0.9128 H       
 256 H256         -32.3850     1.5936    -0.1076 H       
 257 H257         -34.6976     0.7293     1.4520 H       
 258 H258         -34.9139     2.8199    -0.7597 H       
 259 H259         -36.2970     1.9525    -0.0505 H       
 260 H260         -35.7083     2.8435     2.1874 H       
 261 H261         -34.3251     3.7108     1.4783 H       
 262 H262         -37.0151     6.2033     1.5141 H       
 263 H263         -36.4064    -0.2303    -0.3978 H       
 264 H264         -34.9510    -1.2397    -2.7196 H       
 265 H265         -35.3367    -3.6183    -2.1178 H       
 266 H266         -33.8346    -2.1153     0.0711 H       
 267 H267         -33.5621    -3.7962    -0.4470 H       
 268 H268         -33.1798    -2.4520    -1.5494 H       
 269 H269         -37.1213    -3.2417    -0.5753 H       
 270 H270         -36.6247    -2.9410    -3.8989 H       
 271 H271         -39.3890    -2.0646    -3.2757 H       
 272 H272         -38.0889    -2.3016    -6.0252 H       
 273 H273         -39.8334    -2.0759    -5.7536 H       
 274 H274         -38.9735     0.0182    -7.1553 H       
 275 H275         -38.6102     1.3547    -6.2042 H       
 276 H276         -40.9418    -3.7020    -4.7490 H       
 277 H277         -39.7489    -6.3609    -4.9357 H       
 278 H278         -41.3615    -7.3698    -3.3450 H       
 279 H279         -40.3138    -6.1856    -2.5276 H       
 280 H280         -41.9868    -5.7504    -2.9517 H       
 281 H281         -41.8433    -7.9778    -5.4475 H       
 282 H282         -42.9298    -7.0099    -7.8681 H       
 283 H283         -44.1504    -6.8140    -6.5874 H       
 284 H284         -45.0504    -8.5817    -8.4117 H       
 285 H285         -44.0266   -11.2574    -7.8458 H       
 286 H286         -46.8070   -10.3581    -6.9685 H       
 287 H287         -46.2654   -12.0526    -7.0287 H       
 288 H288         -44.4370   -11.5247    -5.4391 H       
 289 H289         -44.9786    -9.8302    -5.3789 H       
 290 H290         -47.1805   -10.5650    -4.5068 H       
 291 H291         -46.6389   -12.2595    -4.5670 H       
 292 H292         -44.7787   -10.7844    -3.0371 H       
 293 H293         -46.3932   -11.4083    -0.0026 H       
 294 H294         -48.1438   -11.8629    -2.9564 H       
 295 H295         -48.2489   -11.9559    -1.2822 H       
 296 H296         -45.8116   -12.8979    -9.0230 H       
 297 H297         -47.0780   -11.5788   -11.2997 H       
 298 H298         -45.7875   -12.7938   -12.9884 H       
 299 H299         -44.6733   -11.8421   -11.9779 H       
 300 H300         -43.9340   -14.0988   -12.2353 H       
 301 H301         -47.9643   -13.5785   -12.8359 H       
 302 H302         -49.3009   -15.4096   -11.0119 H       
 303 H303         -49.3063   -15.1988   -14.0563 H       
 304 H304         -50.3489   -16.2859   -13.1079 H       
 305 H305         -52.4515   -13.3392   -13.5365 H       
 306 H306         -49.3006   -17.9107   -12.0154 H       
 307 H307         -46.6385   -18.6372   -12.9708 H       
 308 H308         -46.1850   -20.1355   -11.0464 H       
 309 H309         -46.7348   -17.2315   -10.2853 H       
 310 H310         -45.6952   -18.3503    -9.3711 H       
 311 H311         -45.2412   -17.8608   -11.0211 H       
 312 H312         -48.4498   -20.3792   -10.3273 H       
 313 H313         -46.5810   -21.1987   -13.2403 H       
 314 H314         -49.2024   -22.0449   -14.2094 H       
 315 H315         -46.4885   -23.4372   -14.1394 H       
 316 H316         -47.9531   -24.1158   -14.8897 H       
 317 H317         -48.0909   -22.1516   -16.3970 H       
 318 H318         -46.6263   -21.4731   -15.6467 H       
 319 H319         -45.3378   -23.4690   -16.3569 H       
 320 H320         -46.8023   -24.1476   -17.1072 H       
 321 H321         -46.3729   -21.5659   -18.1689 H       
 322 H322         -44.2155   -24.5954   -19.6404 H       
 323 H323         -45.3535   -21.3942   -20.3141 H       
 324 H324         -44.4500   -22.6746   -20.9197 H       
 325 H325         -49.5944   -24.8297   -11.8555 H       
 326 H326          10.3078    11.5788    26.9176 H       
 327 H327          10.2640    11.5741    28.6970 H       
 328 H328           9.8594    10.0952    27.7929 H       
 329 H329           7.8118    11.2112    28.6357 H       
 330 H330           8.2601    12.6948    27.7604 H       
 331 H331           8.1792    11.4537    25.6153 H       
 332 H332           7.7309     9.9701    26.4906 H       
 333 H333           5.6833    11.0861    27.3334 H       
 334 H334           6.1316    12.5697    26.4581 H       
 335 H335           6.0506    11.3286    24.3130 H       
 336 H336           5.6023     9.8450    25.1883 H       
 337 H337           3.5547    10.9610    26.0311 H       
 338 H338           4.0030    12.4446    25.1558 H       
 339 H339           3.9221    11.2034    23.0107 H       
 340 H340           3.4738     9.7198    23.8860 H       
 341 H341           1.4261    10.8359    24.7288 H       
 342 H342           1.8745    12.3195    23.8535 H       
 343 H343           1.7935    11.0783    21.7084 H       
 344 H344           1.3452     9.5947    22.5837 H       
 345 H345          -0.7024    10.7108    23.4265 H       
 346 H346          -0.2541    12.1944    22.5512 H       
 347 H347          -0.3350    10.9532    20.4061 H       
 348 H348          -0.7834     9.4696    21.2814 H       
 349 H349          -2.8310    10.5856    22.1242 H       
 350 H350          -2.3826    12.0692    21.2489 H       
 351 H351          -2.4636    10.8281    19.1038 H       
 352 H352          -2.9119     9.3445    19.9791 H       
 353 H353          -4.9595    10.4605    20.8219 H       
 354 H354          -4.5112    11.9441    19.9466 H       
 355 H355          -5.0405     9.2194    18.6768 H       
 356 H356          -4.5921    10.7030    17.8015 H       
@<TRIPOS>BOND
   1    1    2 2
   2    1    4 1
   3    1   10 am
   4    3  151 am
   5    3    4 1
   6    3  168 1
   7    4    5 1
   8    4  169 1
   9    5    6 1
  10    5    7 1
  11    5  170 1
  12    6  171 1
  13    6  172 1
  14    6  173 1
  15    7  174 1
  16    7  175 1
  17    7  176 1
  18    8    9 2
  19    8   11 1
  20    8   21 am
  21   10   11 1
  22   10  177 1
  23   11   12 1
  24   11  178 1
  25   12   13 1
  26   12  179 1
  27   12  180 1
  28   13   14 1
  29   13  181 1
  30   13  182 1
  31   14   15 1
  32   14  183 1
  33   14  184 1
  34   15   16 1
  35   15  185 1
  36   16   17 2
  37   16   18 1
  38   17  186 1
  39   18  187 1
  40   18  188 1
  41   19   20 2
  42   19   22 1
  43   19   28 am
  44   21   22 1
  45   21  189 1
  46   22   23 1
  47   22  190 1
  48   23   24 1
  49   23   25 1
  50   23  191 1
  51   24  192 1
  52   24  193 1
  53   24  194 1
  54   25  195 1
  55   25  196 1
  56   25  197 1
  57   26   27 2
  58   26   29 1
  59   26   36 am
  60   28   29 1
  61   28  198 1
  62   29   30 1
  63   29  199 1
  64   30   31 1
  65   30  200 1
  66   30  201 1
  67   31   32 1
  68   31   33 1
  69   31  202 1
  70   32  203 1
  71   32  204 1
  72   32  205 1
  73   33  206 1
  74   33  207 1
  75   33  208 1
  76   34   35 2
  77   34   37 1
  78   34   41 am
  79   36   37 1
  80   36  209 1
  81   37   38 1
  82   37  210 1
  83   38  211 1
  84   38  212 1
  85   38  213 1
  86   39   40 2
  87   39   42 1
  88   39   48 am
  89   41   42 1
  90   41  214 1
  91   42   43 1
  92   42  215 1
  93   43   44 1
  94   43   45 1
  95   43  216 1
  96   44  217 1
  97   44  218 1
  98   44  219 1
  99   45  220 1
 100   46   47 2
 101   46   49 1
 102   46   57 am
 103   48   49 1
 104   48  221 1
 105   49   50 1
 106   49  222 1
 107   50   51 1
 108   50  223 1
 109   50  224 1
 110   51   52 1
 111   51  225 1
 112   51  226 1
 113   52   53 1
 114   52  227 1
 115   52  228 1
 116   53   54 1
 117   53  229 1
 118   53  230 1
 119   54  231 1
 120   54  232 1
 121   55   56 2
 122   55   58 1
 123   55   65 am
 124   57   58 1
 125   57  233 1
 126   58   59 1
 127   58  234 1
 128   59   60 1
 129   59  235 1
 130   59  236 1
 131   60   61 1
 132   60   62 1
 133   60  237 1
 134   61  238 1
 135   61  239 1
 136   61  240 1
 137   62  241 1
 138   62  242 1
 139   62  243 1
 140   63   64 2
 141   63   66 1
 142   63   76 am
 143   65   66 1
 144   65  244 1
 145   66   67 1
 146   66  245 1
 147   67   68 1
 148   67  246 1
 149   67  247 1
 150   68   69 1
 151   68  248 1
 152   68  249 1
 153   69   70 1
 154   69  250 1
 155   69  251 1
 156   70   71 1
 157   70  252 1
 158   71   72 2
 159   71   73 1
 160   72  253 1
 161   73  254 1
 162   73  255 1
 163   74   75 2
 164   74   77 1
 165   74   85 am
 166   76   77 1
 167   76  256 1
 168   77   78 1
 169   77  257 1
 170   78   79 1
 171   78  258 1
 172   78  259 1
 173   79   80 1
 174   79  260 1
 175   79  261 1
 176   80   81 2
 177   80   82 1
 178   82  262 1
 179   83   84 2
 180   83   86 1
 181   83   92 am
 182   85   86 1
 183   85  263 1
 184   86   87 1
 185   86  264 1
 186   87   88 1
 187   87   89 1
 188   87  265 1
 189   88  266 1
 190   88  267 1
 191   88  268 1
 192   89  269 1
 193   90   91 2
 194   90   93 1
 195   90  100 am
 196   92   93 1
 197   92  270 1
 198   93   94 1
 199   93  271 1
 200   94   95 1
 201   94  272 1
 202   94  273 1
 203   95   96 2
 204   95   97 am
 205   97  274 1
 206   97  275 1
 207   98   99 2
 208   98  101 1
 209   98  105 am
 210  100  101 1
 211  100  276 1
 212  101  102 1
 213  101  277 1
 214  102  278 1
 215  102  279 1
 216  102  280 1
 217  103  104 2
 218  103  106 1
 219  103  109 am
 220  105  106 1
 221  105  281 1
 222  106  282 1
 223  106  283 1
 224  107  108 2
 225  107  110 1
 226  107  120 am
 227  109  110 1
 228  109  284 1
 229  110  111 1
 230  110  285 1
 231  111  112 1
 232  111  286 1
 233  111  287 1
 234  112  113 1
 235  112  288 1
 236  112  289 1
 237  113  114 1
 238  113  290 1
 239  113  291 1
 240  114  115 1
 241  114  292 1
 242  115  116 2
 243  115  117 1
 244  116  293 1
 245  117  294 1
 246  117  295 1
 247  118  119 2
 248  118  121 1
 249  118  126 am
 250  120  121 1
 251  120  296 1
 252  121  122 1
 253  121  297 1
 254  122  123 1
 255  122  298 1
 256  122  299 1
 257  123  300 1
 258  124  125 2
 259  124  127 1
 260  124  134 am
 261  126  127 1
 262  126  301 1
 263  127  128 1
 264  127  302 1
 265  128  129 1
 266  128  303 1
 267  128  304 1
 268  129  130 2
 269  129  131 1
 270  131  305 1
 271  132  133 2
 272  132  135 1
 273  132  141 am
 274  134  135 1
 275  134  306 1
 276  135  136 1
 277  135  307 1
 278  136  137 1
 279  136  138 1
 280  136  308 1
 281  137  309 1
 282  137  310 1
 283  137  311 1
 284  138  312 1
 285  139  140 2
 286  139  142 1
 287  139  150 1
 288  141  142 1
 289  141  313 1
 290  142  143 1
 291  142  314 1
 292  143  144 1
 293  143  315 1
 294  143  316 1
 295  144  145 1
 296  144  317 1
 297  144  318 1
 298  145  146 1
 299  145  319 1
 300  145  320 1
 301  146  147 1
 302  146  321 1
 303  147  148 2
 304  147  149 1
 305  148  322 1
 306  149  323 1
 307  149  324 1
 308  150  325 1
 309  151  152 2
 310  151  167 1
 311  153  154 1
 312  153  326 1
 313  153  327 1
 314  153  328 1
 315  154  155 1
 316  154  329 1
 317  154  330 1
 318  155  156 1
 319  155  331 1
 320  155  332 1
 321  156  157 1
 322  156  333 1
 323  156  334 1
 324  157  158 1
 325  157  335 1
 326  157  336 1
 327  158  159 1
 328  158  337 1
 329  158  338 1
 330  159  160 1
 331  159  339 1
 332  159  340 1
 333  160  161 1
 334  160  341 1
 335  160  342 1
 336  161  162 1
 337  161  343 1
 338  161  344 1
 339  162  163 1
 340  162  345 1
 341  162  346 1
 342  163  164 1
 343  163  347 1
 344  163  348 1
 345  164  165 1
 346  164  349 1
 347  164  350 1
 348  165  166 1
 349  165  351 1
 350  165  352 1
 351  166  167 1
 352  166  353 1
 353  166  354 1
 354  167  355 1
 355  167  356 1

#	End of record

