#	Name: ASD04370026
#	Creating user name:	WinNT
#	Creation time:	15. 06. 2019 20:49

#	Modifying user name:	WinNT
#	Modification time:	15. 06. 2019 20:49

#	Program:	/corina/corina34_cracker 3.40 0067  02.08.2006

@<TRIPOS>MOLECULE
ASD04370026
  69   69    0    0    0
SMALL
NO_CHARGES


@<TRIPOS>ATOM
   1 C1             3.3860     0.2126    -1.3144 C.2     
   2 C2             2.0469     0.8980    -1.2239 C.3     
   3 C3             1.2051     0.2308    -0.1343 C.3     
   4 C4            -0.2011     0.8337    -0.1354 C.3     
   5 O5             3.6742    -0.6691    -0.5232 O.co2   
   6 O6             4.1791     0.5364    -2.1820 O.co2   
   7 N7             1.8309     0.4536     1.1714 N.am    
   8 C8             2.0068     1.7091     1.6290 C.2     
   9 C9             2.5473     1.9363     3.0172 C.3     
  10 C10            2.6488     3.4392     3.2853 C.3     
  11 C11            3.1976     3.6699     4.6948 C.3     
  12 C12            3.2991     5.1728     4.9629 C.3     
  13 C13            3.8478     5.4035     6.3723 C.3     
  14 C14            3.9494     6.9064     6.6404 C.3     
  15 C15            4.4981     7.1371     8.0499 C.3     
  16 C16            4.5997     8.6400     8.3180 C.3     
  17 C17            5.1484     8.8707     9.7274 C.3     
  18 O18            1.7301     2.6560     0.9234 O.2     
  19 C19            5.2485    10.3510     9.9915 C.ar    
  20 C20            4.1789    11.0278    10.5472 C.ar    
  21 C21            4.2706    12.3856    10.7894 C.ar    
  22 C22            5.4321    13.0666    10.4763 C.ar    
  23 C23            6.5020    12.3897     9.9214 C.ar    
  24 C24            6.4119    11.0310     9.6832 C.ar    
  25 C25            5.5318    14.5472    10.7394 C.3     
  26 F26            6.0326    14.7591    12.0284 F       
  27 F27            6.3923    15.1303     9.8031 F       
  28 F28            4.2630    15.1265    10.6309 F       
  29 N29           -1.0481     0.1027     0.8165 N.4     
  30 C30           -0.5072     0.2591     2.1734 C.3     
  31 C31           -2.4144     0.6400     0.7691 C.3     
  32 C32           -1.0694    -1.3220     0.4591 C.3     
  33 H33            2.1930     1.9497    -0.9773 H       
  34 H34            1.5321     0.8175    -2.1812 H       
  35 H35            1.1415    -0.8398    -0.3288 H       
  36 H36           -0.1471     1.8823     0.1572 H       
  37 H37           -0.6285     0.7571    -1.1352 H       
  38 H38            2.1187    -0.3024     1.7066 H       
  39 H39            1.8773     1.4816     3.7469 H       
  40 H40            3.5358     1.4847     3.1007 H       
  41 H41            3.3188     3.8940     2.5556 H       
  42 H42            1.6603     3.8908     3.2019 H       
  43 H43            2.5276     3.2151     5.4244 H       
  44 H44            4.1861     3.2183     4.7782 H       
  45 H45            3.9691     5.6276     4.2332 H       
  46 H46            2.3106     5.6244     4.8794 H       
  47 H47            3.1779     4.9487     7.1020 H       
  48 H48            4.8364     4.9519     6.4558 H       
  49 H49            4.6194     7.3612     5.9108 H       
  50 H50            2.9609     7.3580     6.5570 H       
  51 H51            3.8282     6.6823     8.7796 H       
  52 H52            5.4867     6.6855     8.1333 H       
  53 H53            5.2697     9.0948     7.5883 H       
  54 H54            3.6112     9.0916     8.2345 H       
  55 H55            4.4785     8.4159    10.4571 H       
  56 H56            6.1370     8.4191     9.8109 H       
  57 H57            3.2714    10.4957    10.7919 H       
  58 H58            3.4347    12.9145    11.2229 H       
  59 H59            7.4094    12.9218     9.6764 H       
  60 H60            7.2491    10.5014     9.2531 H       
  61 H61           -0.3027     1.3127     2.3638 H       
  62 H62           -1.2340    -0.1068     2.8986 H       
  63 H63            0.4164    -0.3125     2.2645 H       
  64 H64           -2.8157     0.5240    -0.2377 H       
  65 H65           -3.0429     0.0976     1.4755 H       
  66 H66           -2.3986     1.6972     1.0343 H       
  67 H67           -0.0556    -1.7206     0.4943 H       
  68 H68           -1.6979    -1.8644     1.1655 H       
  69 H69           -1.4708    -1.4380    -0.5477 H       
@<TRIPOS>BOND
   1    1    2 1
   2    1    5 ar
   3    1    6 ar
   4    2    3 1
   5    2   33 1
   6    2   34 1
   7    3    4 1
   8    3    7 1
   9    3   35 1
  10    4   29 1
  11    4   36 1
  12    4   37 1
  13    7    8 am
  14    7   38 1
  15    8    9 1
  16    8   18 2
  17    9   10 1
  18    9   39 1
  19    9   40 1
  20   10   11 1
  21   10   41 1
  22   10   42 1
  23   11   12 1
  24   11   43 1
  25   11   44 1
  26   12   13 1
  27   12   45 1
  28   12   46 1
  29   13   14 1
  30   13   47 1
  31   13   48 1
  32   14   15 1
  33   14   49 1
  34   14   50 1
  35   15   16 1
  36   15   51 1
  37   15   52 1
  38   16   17 1
  39   16   53 1
  40   16   54 1
  41   17   19 1
  42   17   55 1
  43   17   56 1
  44   19   20 ar
  45   19   24 ar
  46   20   21 ar
  47   20   57 1
  48   21   22 ar
  49   21   58 1
  50   22   23 ar
  51   22   25 1
  52   23   24 ar
  53   23   59 1
  54   24   60 1
  55   25   26 1
  56   25   27 1
  57   25   28 1
  58   29   30 1
  59   29   31 1
  60   29   32 1
  61   30   61 1
  62   30   62 1
  63   30   63 1
  64   31   64 1
  65   31   65 1
  66   31   66 1
  67   32   67 1
  68   32   68 1
  69   32   69 1

#	End of record

