#	Name: ASD01700016
#	Creating user name:	WinNT
#	Creation time:	15. 06. 2019 19:22

#	Modifying user name:	WinNT
#	Modification time:	15. 06. 2019 19:22

#	Program:	/corina/corina34_cracker 3.40 0067  02.08.2006

@<TRIPOS>MOLECULE
ASD01700016
  57   61    0    0    0
SMALL
NO_CHARGES


@<TRIPOS>ATOM
   1 Cl1            0.1865     0.4260     0.7565 Cl      
   2 Cl2            2.4716     5.3180     0.9393 Cl      
   3 C3             0.0385     2.1554     0.7230 C.ar    
   4 C4             1.1677     2.9480     0.8301 C.ar    
   5 C5             1.0528     4.3268     0.8042 C.ar    
   6 C6            -0.1910     4.9155     0.6713 C.ar    
   7 C7            -1.3251     4.1224     0.5634 C.ar    
   8 C8            -1.2067     2.7395     0.5838 C.ar    
   9 N9            -2.5876     4.7171     0.4290 N.am    
  10 C10           -2.8109     6.0358     0.5048 C.2     
  11 N11           -4.1132     6.3465     0.3409 N.am    
  12 C12           -4.8109     5.0780     0.1352 C.3     
  13 C13           -5.8867     4.8456     1.2035 C.3     
  14 N14           -6.9797     4.1419     0.4796 N.3     
  15 C15           -7.0208     4.7972    -0.8541 C.3     
  16 C16           -5.5373     5.0440    -1.2139 C.3     
  17 C17           -5.3822     6.3623    -1.9273 C.ar    
  18 C18           -4.1244     6.7960    -2.3071 C.ar    
  19 C19           -3.9752     8.0015    -2.9608 C.ar    
  20 C20           -5.0972     8.7846    -3.2391 C.ar    
  21 C21           -6.3636     8.3409    -2.8529 C.ar    
  22 C22           -6.4989     7.1309    -2.2045 C.ar    
  23 C23           -4.9498    10.0374    -3.9170 C.1     
  24 N24           -4.8329    11.0312    -4.4547 N.1     
  25 C25           -8.2608     4.2963     1.1817 C.3     
  26 C26           -9.3777     3.7887     0.3065 C.2     
  27 S27          -10.2707     4.7693    -0.8429 S.3     
  28 C28          -11.2425     3.4535    -1.3218 C.2     
  29 C29          -10.9013     2.3266    -0.6390 C.2     
  30 C30           -9.8185     2.5367     0.2940 C.2     
  31 C31          -11.5632     1.0283    -0.8343 C.2     
  32 O32          -11.2073     0.0615    -0.1890 O.2     
  33 O33          -12.5646     0.9102    -1.7288 O.3     
  34 C34           -3.7296     4.0322     0.2011 C.2     
  35 O35           -3.8569     2.8328     0.0783 O.2     
  36 C36           -4.7087     7.6848     0.3647 C.3     
  37 O37           -1.9386     6.8593     0.6998 O.2     
  38 H38            2.1401     2.4899     0.9343 H       
  39 H39           -0.2802     5.9916     0.6519 H       
  40 H40           -2.0872     2.1203     0.4955 H       
  41 H41           -5.4971     4.2200     2.0066 H       
  42 H42           -6.2425     5.7970     1.5990 H       
  43 H43           -7.4851     4.1378    -1.5874 H       
  44 H44           -7.5603     5.7426    -0.7965 H       
  45 H45           -5.1555     4.2302    -1.8305 H       
  46 H46           -3.2573     6.1894    -2.0909 H       
  47 H47           -2.9928     8.3390    -3.2564 H       
  48 H48           -7.2356     8.9419    -3.0647 H       
  49 H49           -7.4782     6.7845    -1.9089 H       
  50 H50           -8.2378     3.7247     2.1095 H       
  51 H51           -8.4265     5.3496     1.4079 H       
  52 H52          -12.0234     3.5068    -2.0660 H       
  53 H53           -9.4111     1.7558     0.9190 H       
  54 H54          -12.9691     0.0368    -1.8222 H       
  55 H55           -3.9457     8.4173     0.6280 H       
  56 H56           -5.1136     7.9198    -0.6196 H       
  57 H57           -5.5097     7.7130     1.1033 H       
@<TRIPOS>BOND
   1    1    3 1
   2    2    5 1
   3    3    4 ar
   4    3    8 ar
   5    4    5 ar
   6    4   38 1
   7    5    6 ar
   8    6    7 ar
   9    6   39 1
  10    7    8 ar
  11    7    9 1
  12    8   40 1
  13    9   10 am
  14    9   34 am
  15   10   11 am
  16   10   37 2
  17   11   12 1
  18   11   36 1
  19   12   13 1
  20   12   16 1
  21   12   34 1
  22   13   14 1
  23   13   41 1
  24   13   42 1
  25   14   15 1
  26   14   25 1
  27   15   16 1
  28   15   43 1
  29   15   44 1
  30   16   17 1
  31   16   45 1
  32   17   18 ar
  33   17   22 ar
  34   18   19 ar
  35   18   46 1
  36   19   20 ar
  37   19   47 1
  38   20   21 ar
  39   20   23 1
  40   21   22 ar
  41   21   48 1
  42   22   49 1
  43   23   24 3
  44   25   26 1
  45   25   50 1
  46   25   51 1
  47   26   27 1
  48   26   30 2
  49   27   28 1
  50   28   29 2
  51   28   52 1
  52   29   30 1
  53   29   31 1
  54   30   53 1
  55   31   32 2
  56   31   33 1
  57   33   54 1
  58   34   35 2
  59   36   55 1
  60   36   56 1
  61   36   57 1

#	End of record

