#	Name: ASD03200005
#	Creating user name:	WinNT
#	Creation time:	15. 06. 2019 20:34

#	Modifying user name:	WinNT
#	Modification time:	15. 06. 2019 20:34

#	Program:	/corina/corina34_cracker 3.40 0067  02.08.2006

@<TRIPOS>MOLECULE
ASD03200005
  50   53    0    0    0
SMALL
NO_CHARGES


@<TRIPOS>ATOM
   1 C1             0.9695    -1.0558    -0.1617 C.3     
   2 N2            -0.0201     0.0168     0.0014 N.3     
   3 C3             0.3178     0.8826     1.1384 C.3     
   4 C4             1.6714     1.5511     0.8876 C.3     
   5 C5             2.7426     0.4719     0.7079 C.3     
   6 C6             2.3425    -0.4452    -0.4512 C.3     
   7 C7            -1.3056    -0.5057     0.1360 C.ar    
   8 C8            -2.0104    -0.3716     1.3297 C.ar    
   9 C9            -3.2810    -0.9023     1.4232 C.ar    
  10 N10           -3.8315    -1.5307     0.4018 N.ar    
  11 C11           -3.2008    -1.6813    -0.7479 C.ar    
  12 C12           -1.9246    -1.1740    -0.9271 C.ar    
  13 N13           -1.2594    -1.3361    -2.1498 N.am    
  14 C14           -1.4439    -2.4578    -2.8739 C.2     
  15 C15           -0.6778    -2.6696    -4.1046 C.2     
  16 O16           -2.2473    -3.2951    -2.5052 O.2     
  17 C17           -0.8930    -3.7423    -4.9417 C.2     
  18 S18            0.2317    -3.6139    -6.2918 S.3     
  19 C19            0.8919    -2.1306    -5.6126 C.2     
  20 N20            0.2815    -1.8371    -4.5100 N.2     
  21 C21            1.9811    -1.3341    -6.2159 C.ar    
  22 C22            2.6380    -1.7961    -7.3568 C.ar    
  23 C23            3.6543    -1.0472    -7.9157 C.ar    
  24 C24            4.0229     0.1599    -7.3470 C.ar    
  25 C25            3.3766     0.6249    -6.2160 C.ar    
  26 C26            2.3538    -0.1117    -5.6493 C.ar    
  27 N27            2.0187     2.4006     2.0346 N.3     
  28 N28           -1.8259    -4.7425    -4.7553 N.pl3   
  29 F29            1.7228     0.3434    -4.5449 F       
  30 Br30           4.5455    -1.6722    -9.4620 Br      
  31 H31            1.0200    -1.6456     0.7536 H       
  32 H32            0.6753    -1.6982    -0.9917 H       
  33 H33           -0.4497     1.6481     1.2526 H       
  34 H34            0.3713     0.2837     2.0476 H       
  35 H35            1.6145     2.1611    -0.0138 H       
  36 H36            3.7003     0.9427     0.4860 H       
  37 H37            2.8269    -0.1138     1.6233 H       
  38 H38            3.0798    -1.2410    -0.5568 H       
  39 H39            2.2962     0.1335    -1.3738 H       
  40 H40           -1.5683     0.1407     2.1714 H       
  41 H41           -3.8328    -0.8021     2.3462 H       
  42 H42           -3.6869    -2.2027    -1.5593 H       
  43 H43           -0.6661    -0.6410    -2.4751 H       
  44 H44            2.3524    -2.7379    -7.8016 H       
  45 H45            4.8191     0.7411    -7.7882 H       
  46 H46            3.6691     1.5674    -5.7772 H       
  47 H47            2.9441     2.7890     1.9298 H       
  48 H48            1.3334     3.1295     2.1654 H       
  49 H49           -2.4039    -4.7276    -3.9764 H       
  50 H50           -1.9035    -5.4602    -5.4031 H       
@<TRIPOS>BOND
   1    1    2 1
   2    1    6 1
   3    1   31 1
   4    1   32 1
   5    2    3 1
   6    2    7 1
   7    3    4 1
   8    3   33 1
   9    3   34 1
  10    4    5 1
  11    4   27 1
  12    4   35 1
  13    5    6 1
  14    5   36 1
  15    5   37 1
  16    6   38 1
  17    6   39 1
  18    7    8 ar
  19    7   12 ar
  20    8    9 ar
  21    8   40 1
  22    9   10 ar
  23    9   41 1
  24   10   11 ar
  25   11   12 ar
  26   11   42 1
  27   12   13 1
  28   13   14 am
  29   13   43 1
  30   14   15 1
  31   14   16 2
  32   15   17 2
  33   15   20 1
  34   17   18 1
  35   17   28 1
  36   18   19 1
  37   19   20 2
  38   19   21 1
  39   21   22 ar
  40   21   26 ar
  41   22   23 ar
  42   22   44 1
  43   23   24 ar
  44   23   30 1
  45   24   25 ar
  46   24   45 1
  47   25   26 ar
  48   25   46 1
  49   26   29 1
  50   27   47 1
  51   27   48 1
  52   28   49 1
  53   28   50 1

#	End of record

