#	Name: ASD04590442
#	Creating user name:	WinNT
#	Creation time:	15. 06. 2019 20:50

#	Modifying user name:	WinNT
#	Modification time:	15. 06. 2019 20:50

#	Program:	/corina/corina34_cracker 3.40 0067  02.08.2006

@<TRIPOS>MOLECULE
ASD04590442
  54   59    0    0    0
SMALL
NO_CHARGES


@<TRIPOS>ATOM
   1 C1            -0.0167     1.3832     0.0096 C.ar    
   2 C2             0.0021    -0.0041     0.0020 C.ar    
   3 C3             2.4020     0.0223    -0.0207 C.ar    
   4 C4             2.3769     1.4283    -0.0129 C.ar    
   5 C5             1.1624     2.0986     0.0022 C.ar    
   6 N6             3.7040    -0.3552    -0.0352 N.2     
   7 C7             4.4709     0.7083    -0.0368 C.2     
   8 N8             3.6969     1.8375    -0.0233 N.pl3   
   9 C9             5.9482     0.6906    -0.0510 C.2     
  10 C10            6.7656    -0.4631    -0.0654 C.2     
  11 C11            8.0578    -0.0541    -0.0754 C.2     
  12 N12            8.0646     1.3050    -0.0676 N.pl3   
  13 N13            6.7361     1.7481    -0.0581 N.2     
  14 N14            6.3185    -1.7946    -0.0689 N.am    
  15 C15            7.2105    -2.8049    -0.0832 C.2     
  16 O16            8.4036    -2.5634    -0.0932 O.2     
  17 C17            6.7439    -4.1945    -0.0868 C.2     
  18 C18            1.1969    -0.6870    -0.0130 C.ar    
  19 C19            7.5495    -5.3492    -0.1012 C.2     
  20 C20           -1.2962    -0.7693     0.0108 C.3     
  21 N21           -1.7317    -1.0105    -1.3713 N.3     
  22 C22           -2.8603    -1.9518    -1.4113 C.3     
  23 C23           -0.6175    -1.4976    -2.1974 C.3     
  24 C24           -1.0994    -1.6784    -3.6393 C.3     
  25 O25           -2.2160    -2.5719    -3.6550 O.3     
  26 C26           -3.3197    -2.1280    -2.8611 C.3     
  27 N27            6.7015    -6.4202    -0.0993 N.pl3   
  28 N28            5.3891    -5.9356    -0.0840 N.2     
  29 C29            5.4063    -4.6287    -0.0705 C.2     
  30 N30            8.8716    -5.5251    -0.1152 N.2     
  31 C31            9.3911    -6.7331    -0.1275 C.2     
  32 C32            8.5563    -7.8565    -0.1265 C.2     
  33 C33            7.2098    -7.6850    -0.1114 C.2     
  34 H34           -0.9614     1.9066     0.0169 H       
  35 H35            1.1403     3.1784     0.0079 H       
  36 H36            4.0156     2.7537    -0.0212 H       
  37 H37            8.9274    -0.6944    -0.0870 H       
  38 H38            8.8530     1.8702    -0.0718 H       
  39 H39            5.3679    -1.9871    -0.0609 H       
  40 H40            1.2037    -1.7669    -0.0185 H       
  41 H41           -1.1522    -1.7232     0.5181 H       
  42 H42           -2.0559    -0.1898     0.5353 H       
  43 H43           -2.5453    -2.9149    -1.0097 H       
  44 H44           -3.6831    -1.5591    -0.8140 H       
  45 H45            0.1968    -0.7734    -2.1739 H       
  46 H46           -0.2667    -2.4535    -1.8083 H       
  47 H47           -1.4000    -0.7130    -4.0463 H       
  48 H48           -0.2926    -2.0935    -4.2433 H       
  49 H49           -4.1186    -2.8683    -2.9023 H       
  50 H50           -3.6848    -1.1757    -3.2455 H       
  51 H51            4.5369    -3.9881    -0.0570 H       
  52 H52           10.4638    -6.8585    -0.1387 H       
  53 H53            8.9793    -8.8502    -0.1368 H       
  54 H54            6.5496    -8.5398    -0.1101 H       
@<TRIPOS>BOND
   1    1    2 ar
   2    1    5 ar
   3    1   34 1
   4    2   18 ar
   5    2   20 1
   6    3    4 ar
   7    3    6 1
   8    3   18 ar
   9    4    5 ar
  10    4    8 1
  11    5   35 1
  12    6    7 2
  13    7    8 1
  14    7    9 1
  15    8   36 1
  16    9   10 1
  17    9   13 2
  18   10   11 2
  19   10   14 1
  20   11   12 1
  21   11   37 1
  22   12   13 1
  23   12   38 1
  24   14   15 am
  25   14   39 1
  26   15   16 2
  27   15   17 1
  28   17   19 2
  29   17   29 1
  30   18   40 1
  31   19   27 1
  32   19   30 1
  33   20   21 1
  34   20   41 1
  35   20   42 1
  36   21   22 1
  37   21   23 1
  38   22   26 1
  39   22   43 1
  40   22   44 1
  41   23   24 1
  42   23   45 1
  43   23   46 1
  44   24   25 1
  45   24   47 1
  46   24   48 1
  47   25   26 1
  48   26   49 1
  49   26   50 1
  50   27   28 1
  51   27   33 1
  52   28   29 2
  53   29   51 1
  54   30   31 2
  55   31   32 1
  56   31   52 1
  57   32   33 2
  58   32   53 1
  59   33   54 1

#	End of record

