#	Name: ASD03330120
#	Creating user name:	WinNT
#	Creation time:	15. 06. 2019 20:36

#	Modifying user name:	WinNT
#	Modification time:	15. 06. 2019 20:36

#	Program:	/corina/corina34_cracker 3.40 0067  02.08.2006

@<TRIPOS>MOLECULE
ASD03330120
  64   68    0    0    0
SMALL
NO_CHARGES


@<TRIPOS>ATOM
   1 N1             0.0915     1.4007    -0.8162 N.am    
   2 C2             0.4251    -0.0276    -0.7294 C.3     
   3 C3             0.7761    -0.5380    -2.1305 C.3     
   4 C4             1.8872     0.3322    -2.7225 C.3     
   5 C5             1.3965     1.7767    -2.8435 C.3     
   6 C6             1.0525     2.3133    -1.4505 C.3     
   7 C7             3.0947     0.2860    -1.8220 C.2     
   8 O8             3.5970     1.3171    -1.4277 O.2     
   9 N9             3.6165    -0.9012    -1.4548 N.am    
  10 C10            2.2589    -0.1879    -4.0872 C.ar    
  11 C11            3.1822     0.4930    -4.8584 C.ar    
  12 C12            3.5231     0.0160    -6.1103 C.ar    
  13 C13            2.9409    -1.1421    -6.5908 C.ar    
  14 C14            2.0183    -1.8234    -5.8192 C.ar    
  15 C15            1.6806    -1.3488    -4.5655 C.ar    
  16 C16           -1.0763     1.8640    -0.3283 C.2     
  17 O17           -1.9899     1.0924    -0.1012 O.2     
  18 C18           -1.2461     3.2966    -0.0712 C.2     
  19 C19           -2.4225     3.8960     0.2661 C.2     
  20 C20           -2.3399     5.2592     0.4600 C.2     
  21 C21           -1.0795     5.7815     0.2789 C.2     
  22 S22            0.0390     4.4933    -0.1451 S.3     
  23 C23           -3.5095     6.0911     0.8314 C.ar    
  24 C24           -4.6616     6.0668     0.0465 C.ar    
  25 C25           -5.7481     6.8416     0.3951 C.ar    
  26 C26           -5.6955     7.6449     1.5259 C.ar    
  27 C27           -4.5498     7.6718     2.3092 C.ar    
  28 C28           -3.4619     6.8951     1.9695 C.ar    
  29 O29           -6.7679     8.4072     1.8666 O.3     
  30 C30           -6.6458     9.2102     3.0423 C.3     
  31 C31           -0.7205     7.2052     0.4243 C.ar    
  32 C32            0.3669     7.5776     1.2207 C.ar    
  33 C33            0.6971     8.9112     1.3516 C.ar    
  34 C34           -0.0460     9.8789     0.6964 C.ar    
  35 C35           -1.1244     9.5162    -0.0934 C.ar    
  36 C36           -1.4619     8.1867    -0.2375 C.ar    
  37 Cl37           0.3758    11.5543     0.8662 Cl      
  38 Cl38           1.2988     6.3655     2.0429 Cl      
  39 H39            1.2794    -0.1636    -0.0663 H       
  40 H40           -0.4315    -0.5801    -0.3432 H       
  41 H41            1.1182    -1.5709    -2.0663 H       
  42 H42           -0.1061    -0.4853    -2.7685 H       
  43 H43            2.1800     2.3912    -3.2868 H       
  44 H44            0.5084     1.8075    -3.4748 H       
  45 H45            0.6098     3.3054    -1.5402 H       
  46 H46            1.9579     2.3682    -0.8462 H       
  47 H47            3.2610    -1.7233    -1.8273 H       
  48 H48            4.3474    -0.9336    -0.8179 H       
  49 H49            3.6370     1.3978    -4.4830 H       
  50 H50            4.2439     0.5483    -6.7131 H       
  51 H51            3.2067    -1.5143    -7.5691 H       
  52 H52            1.5632    -2.7280    -6.1947 H       
  53 H53            0.9625    -1.8831    -3.9612 H       
  54 H54           -3.3465     3.3472     0.3728 H       
  55 H55           -4.7031     5.4422    -0.8336 H       
  56 H56           -6.6407     6.8234    -0.2127 H       
  57 H57           -4.5120     8.2982     3.1882 H       
  58 H58           -2.5725     6.9131     2.5819 H       
  59 H59           -6.4575     8.5683     3.9028 H       
  60 H60           -5.8171     9.9079     2.9213 H       
  61 H61           -7.5695     9.7670     3.1996 H       
  62 H62            1.5364     9.2008     1.9665 H       
  63 H63           -1.7000    10.2761    -0.6009 H       
  64 H64           -2.3004     7.9055    -0.8574 H       
@<TRIPOS>BOND
   1    1    2 1
   2    1    6 1
   3    1   16 am
   4    2    3 1
   5    2   39 1
   6    2   40 1
   7    3    4 1
   8    3   41 1
   9    3   42 1
  10    4    5 1
  11    4    7 1
  12    4   10 1
  13    5    6 1
  14    5   43 1
  15    5   44 1
  16    6   45 1
  17    6   46 1
  18    7    8 2
  19    7    9 am
  20    9   47 1
  21    9   48 1
  22   10   11 ar
  23   10   15 ar
  24   11   12 ar
  25   11   49 1
  26   12   13 ar
  27   12   50 1
  28   13   14 ar
  29   13   51 1
  30   14   15 ar
  31   14   52 1
  32   15   53 1
  33   16   17 2
  34   16   18 1
  35   18   19 2
  36   18   22 1
  37   19   20 1
  38   19   54 1
  39   20   21 2
  40   20   23 1
  41   21   22 1
  42   21   31 1
  43   23   24 ar
  44   23   28 ar
  45   24   25 ar
  46   24   55 1
  47   25   26 ar
  48   25   56 1
  49   26   27 ar
  50   26   29 1
  51   27   28 ar
  52   27   57 1
  53   28   58 1
  54   29   30 1
  55   30   59 1
  56   30   60 1
  57   30   61 1
  58   31   32 ar
  59   31   36 ar
  60   32   33 ar
  61   32   38 1
  62   33   34 ar
  63   33   62 1
  64   34   35 ar
  65   34   37 1
  66   35   36 ar
  67   35   63 1
  68   36   64 1

#	End of record

