#	Name: ASD08151071
#	Creating user name:	WinNT
#	Creation time:	15. 06. 2019 21:17

#	Modifying user name:	WinNT
#	Modification time:	15. 06. 2019 21:17

#	Program:	/corina/corina34_cracker 3.40 0067  02.08.2006

@<TRIPOS>MOLECULE
ASD08151071
  47   48    0    0    0
SMALL
NO_CHARGES


@<TRIPOS>ATOM
   1 C1            -0.0187     1.5258     0.0104 C.3     
   2 C2             0.0021    -0.0041     0.0020 C.3     
   3 C3             2.0928     2.1819     1.1970 C.ar    
   4 C4             1.3951     2.0474    -0.0003 C.ar    
   5 C5             1.9925     2.3893    -1.1982 C.ar    
   6 C6             3.2892     2.8685    -1.2258 C.ar    
   7 C7             4.0101     3.0122    -0.0401 C.ar    
   8 C8             3.4109     2.6674     1.1853 C.ar    
   9 C9             1.4452     1.8194     2.4798 C.ar    
  10 C10            1.9355     0.7547     3.2343 C.ar    
  11 C11            1.3284     0.4207     4.4305 C.ar    
  12 C12            0.2345     1.1421     4.8796 C.ar    
  13 C13           -0.2566     2.2005     4.1332 C.ar    
  14 C14            0.3473     2.5457     2.9386 C.ar    
  15 F15           -1.3241     2.9002     4.5761 F       
  16 F16            1.8025    -0.6112     5.1624 F       
  17 C17            5.3531     3.5082    -0.0701 C.1     
  18 C18            6.4542     3.9149    -0.0947 C.1     
  19 N19            4.1056     2.8032     2.3544 N.2     
  20 N20            5.3158     3.2496     2.3375 N.2     
  21 N21            6.0279     3.3888     3.5359 N.pl3   
  22 C22            5.3982     3.0274     4.8084 C.3     
  23 C23            5.7773     1.5913     5.1753 C.3     
  24 C24            7.4023     3.8957     3.5167 C.3     
  25 C25            7.3931     5.4042     3.7723 C.3     
  26 Cl26           4.0228     3.2922    -2.7411 Cl      
  27 O27           -0.7098     1.9991    -1.1473 O.3     
  28 H28           -0.5289     1.8773     0.9072 H       
  29 H29            0.5123    -0.3556    -0.8948 H       
  30 H30            0.5293    -0.3651     0.8851 H       
  31 H31           -1.0205    -0.3814     0.0098 H       
  32 H32            1.4421     2.2809    -2.1210 H       
  33 H33            2.7882     0.1915     2.8848 H       
  34 H34           -0.2372     0.8782     5.8147 H       
  35 H35           -0.0333     3.3742     2.3597 H       
  36 H36            7.4389     4.2786    -0.1166 H       
  37 H37            5.7427     3.7050     5.5896 H       
  38 H38            4.3151     3.1041     4.7125 H       
  39 H39            6.8604     1.5146     5.2712 H       
  40 H40            5.3088     1.3224     6.1220 H       
  41 H41            5.4328     0.9137     4.3941 H       
  42 H42            7.9836     3.3991     4.2935 H       
  43 H43            7.8500     3.6948     2.5434 H       
  44 H44            6.8117     5.9008     2.9954 H       
  45 H45            6.9453     5.6051     4.7456 H       
  46 H46            8.4156     5.7814     3.7580 H       
  47 H47           -1.6280     1.7017    -1.2062 H       
@<TRIPOS>BOND
   1    1    2 1
   2    1    4 1
   3    1   27 1
   4    1   28 1
   5    2   29 1
   6    2   30 1
   7    2   31 1
   8    3    4 ar
   9    3    8 ar
  10    3    9 1
  11    4    5 ar
  12    5    6 ar
  13    5   32 1
  14    6    7 ar
  15    6   26 1
  16    7    8 ar
  17    7   17 1
  18    8   19 1
  19    9   10 ar
  20    9   14 ar
  21   10   11 ar
  22   10   33 1
  23   11   12 ar
  24   11   16 1
  25   12   13 ar
  26   12   34 1
  27   13   14 ar
  28   13   15 1
  29   14   35 1
  30   17   18 3
  31   18   36 1
  32   19   20 2
  33   20   21 1
  34   21   22 1
  35   21   24 1
  36   22   23 1
  37   22   37 1
  38   22   38 1
  39   23   39 1
  40   23   40 1
  41   23   41 1
  42   24   25 1
  43   24   42 1
  44   24   43 1
  45   25   44 1
  46   25   45 1
  47   25   46 1
  48   27   47 1

#	End of record

