#	Name: ASD00110001
#	Creating user name:	WinNT
#	Creation time:	15. 06. 2019 18:30

#	Modifying user name:	WinNT
#	Modification time:	15. 06. 2019 18:30

#	Program:	/corina/corina34_cracker 3.40 0067  02.08.2006

@<TRIPOS>MOLECULE
ASD00110001
  81   82    0    0    0
SMALL
NO_CHARGES


@<TRIPOS>ATOM
   1 C1            -0.0187     1.5267     0.0104 C.3     
   2 C2             0.0021    -0.0041     0.0020 C.3     
   3 C3            -1.4359    -0.5268     0.0737 C.3     
   4 C4            -2.1111     0.0385     1.3271 C.3     
   5 C5            -2.0503     1.5676     1.2843 C.3     
   6 O6            -0.6874     1.9862     1.1868 O.3     
   7 C7             1.4166     2.0565    -0.0004 C.3     
   8 C8             1.3987     3.5805     0.1337 C.3     
   9 C9             2.8340     4.1103     0.1228 C.3     
  10 Cl10           0.4840     4.2945    -1.2463 Cl      
  11 N11            2.1598     1.4763     1.1209 N.am    
  12 C12            3.5017     1.3686     1.0561 C.2     
  13 C13            4.2662     0.7717     2.2096 C.3     
  14 O14            4.0940     1.7519     0.0696 O.2     
  15 N15            5.5853     0.3253     1.7435 N.3     
  16 C16            6.3482    -0.3017     2.8304 C.3     
  17 C17            6.5848     0.7202     3.9448 C.3     
  18 C18            5.2351     1.2210     4.4664 C.3     
  19 C19            4.4407     1.8256     3.3054 C.3     
  20 O20            0.6189    -0.4667    -1.2011 O.3     
  21 O21           -2.1556    -0.1073    -1.0874 O.3     
  22 C22            5.4653     2.2877     5.5388 C.3     
  23 C23            6.1562     1.6544     6.7481 C.3     
  24 C24            6.3864     2.7211     7.8205 C.3     
  25 C25            7.0772     2.0877     9.0298 C.3     
  26 C26            7.3074     3.1545    10.1022 C.3     
  27 C27            7.9982     2.5211    11.3116 C.3     
  28 C28            8.2284     3.5878    12.3839 C.3     
  29 C29            8.9193     2.9545    13.5933 C.3     
  30 C30            9.1495     4.0212    14.6657 C.3     
  31 C31            9.8403     3.3878    15.8750 C.3     
  32 C32           10.0705     4.4546    16.9474 C.3     
  33 O33           -1.4299    -0.4342     2.4909 O.3     
  34 S34           -2.7842     2.2448     2.7987 S.3     
  35 H35           -0.5462     1.8879    -0.8724 H       
  36 H36            0.5644    -0.3655     0.8630 H       
  37 H37           -1.4260    -1.6156     0.1246 H       
  38 H38           -3.1519    -0.2839     1.3570 H       
  39 H39           -2.6045     1.9294     0.4183 H       
  40 H40            1.8989     1.7799    -0.9379 H       
  41 H41            0.9164     3.8571     1.0712 H       
  42 H42            3.3163     3.8337    -0.8147 H       
  43 H43            2.8213     5.1961     0.2183 H       
  44 H44            3.3870     3.6787     0.9571 H       
  45 H45            1.6861     1.1697     1.9099 H       
  46 H46            3.7149    -0.0795     2.6090 H       
  47 H47            5.4982    -0.2992     0.9558 H       
  48 H48            5.7871    -1.1479     3.2268 H       
  49 H49            7.3074    -0.6497     2.4470 H       
  50 H50            7.1376     0.2501     4.7582 H       
  51 H51            7.1578     1.5603     3.5525 H       
  52 H52            4.6779     0.3875     4.8941 H       
  53 H53            4.9800     2.6832     2.9031 H       
  54 H54            3.4616     2.1454     3.6620 H       
  55 H55            0.6662    -1.4298    -1.2737 H       
  56 H56           -3.0757    -0.4039    -1.1083 H       
  57 H57            6.0954     3.0798     5.1340 H       
  58 H58            4.5072     2.7068     5.8459 H       
  59 H59            5.5262     0.8623     7.1529 H       
  60 H60            7.1143     1.2353     6.4409 H       
  61 H61            7.0164     3.5131     7.4157 H       
  62 H62            5.4282     3.1402     8.1277 H       
  63 H63            6.4472     1.2957     9.4346 H       
  64 H64            8.0354     1.6686     8.7227 H       
  65 H65            7.9374     3.9465     9.6975 H       
  66 H66            6.3492     3.5736    10.4094 H       
  67 H67            7.3682     1.7290    11.7163 H       
  68 H68            8.9564     2.1020    11.0044 H       
  69 H69            8.8585     4.3799    11.9792 H       
  70 H70            7.2703     4.0069    12.6911 H       
  71 H71            8.2893     2.1624    13.9980 H       
  72 H72            9.8774     2.5354    13.2861 H       
  73 H73            9.7795     4.8133    14.2609 H       
  74 H74            8.1913     4.4403    14.9728 H       
  75 H75            9.2103     2.5958    16.2798 H       
  76 H76           10.7985     2.9687    15.5678 H       
  77 H77           10.5627     4.0034    17.8090 H       
  78 H78           10.7005     5.2466    16.5427 H       
  79 H79            9.1123     4.8737    17.2546 H       
  80 H80           -1.8048    -0.1147     3.3231 H       
  81 H81           -2.6638     3.5732     2.6254 H       
@<TRIPOS>BOND
   1    1    2 1
   2    1    7 1
   3    1    6 1
   4    1   35 1
   5    2    3 1
   6    2   20 1
   7    2   36 1
   8    3    4 1
   9    3   21 1
  10    3   37 1
  11    4    5 1
  12    4   33 1
  13    4   38 1
  14    5    6 1
  15    5   34 1
  16    5   39 1
  17    7    8 1
  18    7   11 1
  19    7   40 1
  20    8    9 1
  21    8   10 1
  22    8   41 1
  23    9   42 1
  24    9   43 1
  25    9   44 1
  26   11   12 am
  27   11   45 1
  28   12   14 2
  29   12   13 1
  30   13   15 1
  31   13   19 1
  32   13   46 1
  33   15   16 1
  34   15   47 1
  35   16   17 1
  36   16   48 1
  37   16   49 1
  38   17   18 1
  39   17   50 1
  40   17   51 1
  41   18   19 1
  42   18   22 1
  43   18   52 1
  44   19   53 1
  45   19   54 1
  46   20   55 1
  47   21   56 1
  48   22   23 1
  49   22   57 1
  50   22   58 1
  51   23   24 1
  52   23   59 1
  53   23   60 1
  54   24   25 1
  55   24   61 1
  56   24   62 1
  57   25   26 1
  58   25   63 1
  59   25   64 1
  60   26   27 1
  61   26   65 1
  62   26   66 1
  63   27   28 1
  64   27   67 1
  65   27   68 1
  66   28   29 1
  67   28   69 1
  68   28   70 1
  69   29   30 1
  70   29   71 1
  71   29   72 1
  72   30   31 1
  73   30   73 1
  74   30   74 1
  75   31   32 1
  76   31   75 1
  77   31   76 1
  78   32   77 1
  79   32   78 1
  80   32   79 1
  81   33   80 1
  82   34   81 1

#	End of record

