#	Name: ASD09116504
#	Creating user name:	WinNT
#	Creation time:	15. 06. 2019 21:21

#	Modifying user name:	WinNT
#	Modification time:	15. 06. 2019 21:21

#	Program:	/corina/corina34_cracker 3.40 0067  02.08.2006

@<TRIPOS>MOLECULE
ASD09116504
  87   94    0    0    0
SMALL
NO_CHARGES


@<TRIPOS>ATOM
   1 N1             0.0126     2.3561     0.3089 N.2     
   2 N2            -0.8257     3.4091     0.7093 N.pl3   
   3 C3             1.2393     2.8201     0.3146 C.2     
   4 N4             1.2186     4.1028     0.6953 N.2     
   5 C5            -0.0206     4.4733     0.9371 C.2     
   6 N6            -0.4282     5.7273     1.3508 N.pl3   
   7 C7            -2.2146     3.3671     0.8448 C.ar    
   8 N8             2.3816     2.0933    -0.0217 N.pl3   
   9 C9             3.6231     2.7318    -0.0827 C.ar    
  10 C10            4.7879     2.0125     0.1548 C.ar    
  11 C11            3.6951     4.0859    -0.3868 C.ar    
  12 C12            4.9288     4.7075    -0.4444 C.ar    
  13 C13            6.0761     3.9960    -0.2046 C.ar    
  14 C14            6.0144     2.6452     0.0936 C.ar    
  15 N15           -2.8257     4.2079     1.6659 N.ar    
  16 N16           -4.1001     4.2041     1.8346 N.ar    
  17 C17           -4.8823     3.3514     1.1925 C.ar    
  18 C18           -4.3277     2.4406     0.2887 C.ar    
  19 C19           -2.9605     2.4421     0.1099 C.ar    
  20 C20           -6.3446     3.3086     1.4254 C.ar    
  21 C21           -6.9509     2.0781     1.6834 C.ar    
  22 C22           -6.1001     0.8410     1.7734 C.3     
  23 C23           -5.6827     0.3504     0.3897 C.3     
  24 C24           -5.2248     1.5165    -0.4822 C.3     
  25 C25           -7.1118     4.4676     1.3861 C.ar    
  26 C26           -8.4768     4.3909     1.5847 C.ar    
  27 C27           -9.0766     3.1670     1.8194 C.ar    
  28 C28           -8.3152     2.0120     1.8677 C.ar    
  29 C29            5.0043     6.1840    -0.7741 C.3     
  30 C30            5.5973     6.3379    -2.1768 C.3     
  31 C31            7.1125     6.3418    -2.1270 C.3     
  32 C32            7.7301     5.0151    -1.7315 C.3     
  33 C33            7.4244     4.6834    -0.2692 C.3     
  34 N34            7.6213     6.7157    -3.4533 N.3     
  35 C35            7.3677     8.1348    -3.7334 C.3     
  36 C36            7.0480     5.8577    -4.4980 C.3     
  37 C37            7.7071     6.1778    -5.8416 C.3     
  38 C38            7.4731     7.6525    -6.1808 C.3     
  39 C39            8.0364     8.5229    -5.0541 C.3     
  40 N40            8.1532     7.9802    -7.4410 N.3     
  41 C41            7.5807     7.2160    -8.5646 C.3     
  42 C42            7.1131     8.2384    -9.6217 C.3     
  43 C43            7.9603     9.4953    -9.2910 C.3     
  44 C44            8.0383     9.4223    -7.7456 C.3     
  45 H45            0.2269     6.4294     1.4882 H       
  46 H46           -1.3693     5.9054     1.5036 H       
  47 H47            2.3141     1.1448    -0.2131 H       
  48 H48            4.7344     0.9592     0.3875 H       
  49 H49            2.7934     4.6490    -0.5771 H       
  50 H50            6.9212     2.0894     0.2813 H       
  51 H51           -2.4833     1.7485    -0.5666 H       
  52 H52           -5.2070     1.0641     2.3570 H       
  53 H53           -6.6653     0.0553     2.2747 H       
  54 H54           -4.8650    -0.3628     0.4934 H       
  55 H55           -6.5299    -0.1429    -0.0868 H       
  56 H56           -6.0978     2.0701    -0.8278 H       
  57 H57           -4.6831     1.1281    -1.3447 H       
  58 H58           -6.6430     5.4229     1.2017 H       
  59 H59           -9.0767     5.2886     1.5570 H       
  60 H60          -10.1453     3.1120     1.9655 H       
  61 H61           -8.7900     1.0594     2.0505 H       
  62 H62            4.0040     6.6164    -0.7498 H       
  63 H63            5.6426     6.6890    -0.0491 H       
  64 H64            5.2616     5.5093    -2.8004 H       
  65 H65            5.2508     7.2755    -2.6113 H       
  66 H66            7.4329     7.0992    -1.4116 H       
  67 H67            7.3269     4.2282    -2.3690 H       
  68 H68            8.8101     5.0677    -1.8687 H       
  69 H69            7.3954     5.6022     0.3165 H       
  70 H70            8.1936     4.0189     0.1242 H       
  71 H71            6.2935     8.3042    -3.8066 H       
  72 H72            7.7770     8.7429    -2.9266 H       
  73 H73            7.2249     4.8119    -4.2467 H       
  74 H74            5.9752     6.0378    -4.5677 H       
  75 H75            8.7779     5.9847    -5.7767 H       
  76 H76            7.2703     5.5516    -6.6196 H       
  77 H77            6.4039     7.8373    -6.2841 H       
  78 H78            7.8349     9.5722    -5.2694 H       
  79 H79            9.1124     8.3668    -4.9768 H       
  80 H80            8.3397     6.5610    -8.9924 H       
  81 H81            6.7319     6.6266    -8.2178 H       
  82 H82            7.3317     7.8800   -10.6276 H       
  83 H83            6.0497     8.4498    -9.5093 H       
  84 H84            8.9529     9.4252    -9.7358 H       
  85 H85            7.4527    10.4043    -9.6139 H       
  86 H86            7.1324     9.8333    -7.3001 H       
  87 H87            8.9164     9.9576    -7.3843 H       
@<TRIPOS>BOND
   1    1    2 1
   2    1    3 2
   3    2    7 1
   4    2    5 1
   5    3    4 1
   6    3    8 1
   7    4    5 2
   8    5    6 1
   9    6   45 1
  10    6   46 1
  11    7   15 ar
  12    7   19 ar
  13    8    9 1
  14    8   47 1
  15    9   10 ar
  16    9   11 ar
  17   10   14 ar
  18   10   48 1
  19   11   12 ar
  20   11   49 1
  21   12   13 ar
  22   12   29 1
  23   13   14 ar
  24   13   33 1
  25   14   50 1
  26   15   16 ar
  27   16   17 ar
  28   17   18 ar
  29   17   20 1
  30   18   19 ar
  31   18   24 1
  32   19   51 1
  33   20   21 ar
  34   20   25 ar
  35   21   22 1
  36   21   28 ar
  37   22   23 1
  38   22   52 1
  39   22   53 1
  40   23   24 1
  41   23   54 1
  42   23   55 1
  43   24   56 1
  44   24   57 1
  45   25   26 ar
  46   25   58 1
  47   26   27 ar
  48   26   59 1
  49   27   28 ar
  50   27   60 1
  51   28   61 1
  52   29   30 1
  53   29   62 1
  54   29   63 1
  55   30   31 1
  56   30   64 1
  57   30   65 1
  58   31   32 1
  59   31   34 1
  60   31   66 1
  61   32   33 1
  62   32   67 1
  63   32   68 1
  64   33   69 1
  65   33   70 1
  66   34   35 1
  67   34   36 1
  68   35   39 1
  69   35   71 1
  70   35   72 1
  71   36   37 1
  72   36   73 1
  73   36   74 1
  74   37   38 1
  75   37   75 1
  76   37   76 1
  77   38   39 1
  78   38   40 1
  79   38   77 1
  80   39   78 1
  81   39   79 1
  82   40   41 1
  83   40   44 1
  84   41   42 1
  85   41   80 1
  86   41   81 1
  87   42   43 1
  88   42   82 1
  89   42   83 1
  90   43   44 1
  91   43   84 1
  92   43   85 1
  93   44   86 1
  94   44   87 1

#	End of record

