#	Name: ASD03330065
#	Creating user name:	WinNT
#	Creation time:	15. 06. 2019 20:36

#	Modifying user name:	WinNT
#	Modification time:	15. 06. 2019 20:36

#	Program:	/corina/corina34_cracker 3.40 0067  02.08.2006

@<TRIPOS>MOLECULE
ASD03330065
  75   79    0    0    0
SMALL
NO_CHARGES


@<TRIPOS>ATOM
   1 C1             0.1298     1.4712     0.0077 C.2     
   2 C2             0.0236     0.2582     0.6188 C.2     
   3 C3             1.3293     2.1195     0.2177 C.2     
   4 C4             2.2156     1.4271     1.0112 C.2     
   5 S5             1.4980    -0.0995     1.5061 S.3     
   6 C6             3.5632     1.8948     1.3887 C.ar    
   7 C7             3.9671     1.8666     2.7271 C.ar    
   8 C8             4.4432     2.3622     0.4099 C.ar    
   9 C9             5.7016     2.7975     0.7691 C.ar    
  10 C10            6.0943     2.7718     2.0970 C.ar    
  11 C11            5.2292     2.3053     3.0726 C.ar    
  12 Cl12           7.6806     3.3207     2.5396 Cl      
  13 C13            1.6378     3.4482    -0.3625 C.ar    
  14 C14            1.5476     3.6487    -1.7392 C.ar    
  15 C15            2.0137     4.5039     0.4671 C.ar    
  16 C16            2.2997     5.7386    -0.0787 C.ar    
  17 C17            2.2140     5.9301    -1.4461 C.ar    
  18 C18            1.8360     4.8879    -2.2736 C.ar    
  19 C19           -1.1478    -0.6193     0.5468 C.2     
  20 O20           -2.2670    -0.1487     0.6332 O.2     
  21 S21            2.5801     7.5096    -2.1357 S.o     
  22 N22           -0.9860    -1.9475     0.3851 N.am    
  23 C23           -2.1494    -2.8278     0.2115 C.3     
  24 C24            0.3577    -2.5419     0.3727 C.3     
  25 C25            0.5176    -3.3727    -0.9043 C.3     
  26 C26           -0.6211    -4.3914    -0.9913 C.3     
  27 C27           -1.9562    -3.6549    -1.0634 C.3     
  28 C28           -0.4481    -5.2334    -2.2292 C.ar    
  29 C29           -1.3786    -5.1626    -3.2489 C.ar    
  30 C30           -1.2199    -5.9349    -4.3843 C.ar    
  31 C31           -0.1304    -6.7778    -4.5002 C.ar    
  32 C32            0.8007    -6.8479    -3.4808 C.ar    
  33 C33            0.6443    -6.0723    -2.3473 C.ar    
  34 Cl34           2.8835     1.2820     3.9510 Cl      
  35 C35           -0.5953    -5.2786     0.2266 C.2     
  36 O36            0.3224    -5.1988     1.0156 O.2     
  37 N37           -1.5919    -6.1606     0.4391 N.am    
  38 C38            4.3606     7.4074    -2.4672 C.3     
  39 C39            4.8420     8.7246    -3.0789 C.3     
  40 C40            6.3437     8.6383    -3.3585 C.3     
  41 C41            6.8251     9.9555    -3.9703 C.3     
  42 O42            8.2277     9.8750    -4.2314 O.3     
  43 O43            1.8678     7.4946    -3.3651 O.2     
  44 H44           -0.6608     1.8902    -0.5972 H       
  45 H45            4.1390     2.3824    -0.6262 H       
  46 H46            6.3826     3.1591     0.0129 H       
  47 H47            5.5415     2.2882     4.1063 H       
  48 H48            1.2529     2.8358    -2.3862 H       
  49 H49            2.0806     4.3556     1.5348 H       
  50 H50            2.5906     6.5572     0.5629 H       
  51 H51            1.7711     5.0431    -3.3404 H       
  52 H52           -2.2347    -3.4942     1.0699 H       
  53 H53           -3.0535    -2.2254     0.1228 H       
  54 H54            1.1073    -1.7508     0.3903 H       
  55 H55            0.4810    -3.1844     1.2445 H       
  56 H56            0.4844    -2.7149    -1.7728 H       
  57 H57            1.4732    -3.8964    -0.8803 H       
  58 H58           -2.7668    -4.3785    -1.1490 H       
  59 H59           -1.9622    -2.9967    -1.9323 H       
  60 H60           -2.2299    -4.5041    -3.1584 H       
  61 H61           -1.9473    -5.8801    -5.1807 H       
  62 H62           -0.0067    -7.3817    -5.3869 H       
  63 H63            1.6518    -7.5067    -3.5711 H       
  64 H64            1.3717    -6.1271    -1.5508 H       
  65 H65           -2.2871    -6.2767    -0.2273 H       
  66 H66           -1.6140    -6.6794     1.2584 H       
  67 H67            4.8939     7.2237    -1.5345 H       
  68 H68            4.5543     6.5913    -3.1633 H       
  69 H69            4.3087     8.9083    -4.0116 H       
  70 H70            4.6483     9.5407    -2.3828 H       
  71 H71            6.8770     8.4546    -2.4258 H       
  72 H72            6.5374     7.8222    -4.0547 H       
  73 H73            6.2918    10.1393    -4.9030 H       
  74 H74            6.6314    10.7716    -3.2741 H       
  75 H75            8.6020    10.6771    -4.6208 H       
@<TRIPOS>BOND
   1    1    2 2
   2    1    3 1
   3    1   44 1
   4    2   19 1
   5    2    5 1
   6    3    4 2
   7    3   13 1
   8    4    5 1
   9    4    6 1
  10    6    7 ar
  11    6    8 ar
  12    7   34 1
  13    7   11 ar
  14    8    9 ar
  15    8   45 1
  16    9   10 ar
  17    9   46 1
  18   10   11 ar
  19   10   12 1
  20   11   47 1
  21   13   14 ar
  22   13   15 ar
  23   14   18 ar
  24   14   48 1
  25   15   16 ar
  26   15   49 1
  27   16   17 ar
  28   16   50 1
  29   17   18 ar
  30   17   21 1
  31   18   51 1
  32   19   20 2
  33   19   22 am
  34   21   38 1
  35   21   43 2
  36   22   23 1
  37   22   24 1
  38   23   27 1
  39   23   52 1
  40   23   53 1
  41   24   25 1
  42   24   54 1
  43   24   55 1
  44   25   26 1
  45   25   56 1
  46   25   57 1
  47   26   27 1
  48   26   28 1
  49   26   35 1
  50   27   58 1
  51   27   59 1
  52   28   29 ar
  53   28   33 ar
  54   29   30 ar
  55   29   60 1
  56   30   31 ar
  57   30   61 1
  58   31   32 ar
  59   31   62 1
  60   32   33 ar
  61   32   63 1
  62   33   64 1
  63   35   36 2
  64   35   37 am
  65   37   65 1
  66   37   66 1
  67   38   39 1
  68   38   67 1
  69   38   68 1
  70   39   40 1
  71   39   69 1
  72   39   70 1
  73   40   41 1
  74   40   71 1
  75   40   72 1
  76   41   42 1
  77   41   73 1
  78   41   74 1
  79   42   75 1

#	End of record

