#	Name: ASD03730740
#	Creating user name:	WinNT
#	Creation time:	15. 06. 2019 20:44

#	Modifying user name:	WinNT
#	Modification time:	15. 06. 2019 20:44

#	Program:	/corina/corina34_cracker 3.40 0067  02.08.2006

@<TRIPOS>MOLECULE
ASD03730740
  59   65    0    0    0
SMALL
NO_CHARGES


@<TRIPOS>ATOM
   1 C1             1.3739    -1.2074    -2.4838 C.2     
   2 C2             0.4791    -1.1530    -1.3086 C.ar    
   3 C3             0.7354    -0.2521    -0.2733 C.ar    
   4 C4            -0.1036    -0.2064     0.8206 C.ar    
   5 C5            -1.1974    -1.0510     0.8932 C.ar    
   6 C6            -1.4571    -1.9461    -0.1292 C.ar    
   7 C7            -0.6291    -1.9980    -1.2317 C.ar    
   8 O8             2.3149    -0.4422    -2.5672 O.2     
   9 N9             1.1500    -2.1091    -3.4601 N.am    
  10 C10            1.9263     0.6681    -0.3505 C.3     
  11 O11            0.1166    -0.7037     6.4711 O.3     
  12 C12            0.0752    -0.3763     7.8726 C.3     
  13 O13            1.3611     0.2210     8.1226 O.3     
  14 C14            1.7535     0.7574     6.9297 C.ar    
  15 C15            0.9885     0.1877     5.9145 C.ar    
  16 C16            2.7165     1.7020     6.6230 C.ar    
  17 C17            2.9301     2.0884     5.3033 C.ar    
  18 C18            2.1654     1.5061     4.2970 C.ar    
  19 C19            1.2002     0.5686     4.6001 C.ar    
  20 O20            3.8046     3.0023     4.7931 O.3     
  21 C21            2.6428     2.0988     2.9982 C.3     
  22 C22            3.9716     2.7639     3.3821 C.3     
  23 N23            2.0407     1.4247     0.8988 N.am    
  24 C24            2.8253     1.0577     1.9316 C.2     
  25 C25            1.6673     3.0854     2.4282 C.ar    
  26 C26            1.1024     4.2478     2.9035 C.ar    
  27 C27            0.2114     4.9569     2.1177 C.ar    
  28 C28           -0.1108     4.4952     0.8545 C.ar    
  29 C29            0.4517     3.3309     0.3743 C.ar    
  30 C30            1.3499     2.6108     1.1582 C.ar    
  31 O31            3.5392     0.0788     1.9881 O.2     
  32 C32            1.8796    -2.0455    -4.6514 C.ar    
  33 C33            1.3725    -2.6207    -5.8093 C.ar    
  34 C34            2.0956    -2.5560    -6.9856 C.ar    
  35 C35            3.3240    -1.9193    -7.0100 C.ar    
  36 C36            3.8316    -1.3453    -5.8577 C.ar    
  37 C37            3.1100    -1.4021    -4.6800 C.ar    
  38 Cl38           5.3733    -0.5479    -5.8925 Cl      
  39 Cl39           1.4625    -3.2748    -8.4335 Cl      
  40 H40            0.0937     0.4898     1.6223 H       
  41 H41           -1.8510    -1.0115     1.7521 H       
  42 H42           -2.3124    -2.6025    -0.0663 H       
  43 H43           -0.8356    -2.6938    -2.0314 H       
  44 H44            0.4826    -2.8021    -3.3365 H       
  45 H45            2.8310     0.0795    -0.5029 H       
  46 H46            1.7980     1.3594    -1.1834 H       
  47 H47           -0.7241     0.3363     8.0759 H       
  48 H48           -0.0518    -1.2773     8.4727 H       
  49 H49            3.3066     2.1424     7.4131 H       
  50 H50            0.6083     0.1302     3.8102 H       
  51 H51            4.1045     3.7024     2.8440 H       
  52 H52            4.8087     2.0900     3.1998 H       
  53 H53            1.3553     4.6064     3.8903 H       
  54 H54           -0.2312     5.8691     2.4898 H       
  55 H55           -0.8065     5.0487     0.2412 H       
  56 H56            0.1947     2.9764    -0.6129 H       
  57 H57            0.4142    -3.1184    -5.7906 H       
  58 H58            3.8877    -1.8705    -7.9300 H       
  59 H59            3.5046    -0.9501    -3.7820 H       
@<TRIPOS>BOND
   1    1    2 1
   2    1    8 2
   3    1    9 am
   4    2    3 ar
   5    2    7 ar
   6    3    4 ar
   7    3   10 1
   8    4    5 ar
   9    4   40 1
  10    5    6 ar
  11    5   41 1
  12    6    7 ar
  13    6   42 1
  14    7   43 1
  15    9   32 1
  16    9   44 1
  17   10   23 1
  18   10   45 1
  19   10   46 1
  20   11   12 1
  21   11   15 1
  22   12   13 1
  23   12   47 1
  24   12   48 1
  25   13   14 1
  26   14   15 ar
  27   14   16 ar
  28   15   19 ar
  29   16   17 ar
  30   16   49 1
  31   17   18 ar
  32   17   20 1
  33   18   19 ar
  34   18   21 1
  35   19   50 1
  36   20   22 1
  37   21   22 1
  38   21   24 1
  39   21   25 1
  40   22   51 1
  41   22   52 1
  42   23   24 am
  43   23   30 1
  44   24   31 2
  45   25   26 ar
  46   25   30 ar
  47   26   27 ar
  48   26   53 1
  49   27   28 ar
  50   27   54 1
  51   28   29 ar
  52   28   55 1
  53   29   30 ar
  54   29   56 1
  55   32   33 ar
  56   32   37 ar
  57   33   34 ar
  58   33   57 1
  59   34   35 ar
  60   34   39 1
  61   35   36 ar
  62   35   58 1
  63   36   37 ar
  64   36   38 1
  65   37   59 1

#	End of record

