#	Name: ASD01911116
#	Creating user name:	WinNT
#	Creation time:	15. 06. 2019 19:57

#	Modifying user name:	WinNT
#	Modification time:	15. 06. 2019 19:57

#	Program:	/corina/corina34_cracker 3.40 0067  02.08.2006

@<TRIPOS>MOLECULE
ASD01911116
  45   48    0    0    0
SMALL
NO_CHARGES


@<TRIPOS>ATOM
   1 C1            -0.0114     0.9448     0.1613 C.ar    
   2 C2             1.1728     1.6495     0.0549 C.ar    
   3 C3             2.3827     0.9888     0.1485 C.ar    
   4 C4             2.4097    -0.3836     0.3500 C.ar    
   5 C5             1.2210    -1.0906     0.4572 C.ar    
   6 C6             0.0117    -0.4255     0.3625 C.ar    
   7 F7            -1.1470    -1.1125     0.4667 F       
   8 O8             3.5992    -1.0346     0.4418 O.3     
   9 C9             4.7303    -0.3338     0.1798 C.2     
  10 N10            5.9967    -0.7725     0.3339 N.2     
  11 C11            6.7625     0.2252    -0.0349 C.2     
  12 O12            5.9542     1.2262    -0.3969 O.3     
  13 N13            4.7960     0.8879    -0.2734 N.2     
  14 C14            8.7769     1.3541     0.8742 C.3     
  15 C15            8.2693     0.2410    -0.0477 C.3     
  16 C16            8.7653     0.4983    -1.4725 C.3     
  17 C17           10.2955     0.4818    -1.4925 C.3     
  18 C18           10.8261     1.5977    -0.5869 C.3     
  19 N19           10.2384     1.4410     0.7505 N.am    
  20 C20           11.0250     1.3776     1.8431 C.2     
  21 O21           10.5249     1.3241     2.9498 O.2     
  22 C22           12.4949     1.3732     1.6957 C.ar    
  23 C23           13.1164     2.2880     0.8430 C.ar    
  24 C24           14.4882     2.2795     0.7092 C.ar    
  25 C25           15.2509     1.3649     1.4194 C.ar    
  26 C26           14.6389     0.4542     2.2671 C.ar    
  27 C27           13.2683     0.4580     2.4130 C.ar    
  28 F28           16.5951     1.3609     1.2846 F       
  29 H29           -0.9559     1.4639     0.0919 H       
  30 H30            1.1524     2.7179    -0.1020 H       
  31 H31            3.3073     1.5406     0.0645 H       
  32 H32            1.2396    -2.1591     0.6137 H       
  33 H33            8.3284     2.3036     0.5819 H       
  34 H34            8.5106     1.1241     1.9058 H       
  35 H35            8.6467    -0.7204     0.3008 H       
  36 H36            8.3851    -0.2791    -2.1353 H       
  37 H37            8.4082     1.4708    -1.8113 H       
  38 H38           10.6538    -0.4818    -1.1304 H       
  39 H39           10.6478     0.6419    -2.5115 H       
  40 H40           11.9118     1.5284    -0.5194 H       
  41 H41           10.5447     2.5671    -0.9984 H       
  42 H42           12.5232     3.0005     0.2891 H       
  43 H43           14.9698     2.9863     0.0497 H       
  44 H44           15.2376    -0.2563     2.8177 H       
  45 H45           12.7926    -0.2515     3.0738 H       
@<TRIPOS>BOND
   1    1    2 ar
   2    1    6 ar
   3    1   29 1
   4    2    3 ar
   5    2   30 1
   6    3    4 ar
   7    3   31 1
   8    4    5 ar
   9    4    8 1
  10    5    6 ar
  11    5   32 1
  12    6    7 1
  13    8    9 1
  14    9   10 1
  15    9   13 2
  16   10   11 2
  17   11   12 1
  18   11   15 1
  19   12   13 1
  20   14   15 1
  21   14   19 1
  22   14   33 1
  23   14   34 1
  24   15   16 1
  25   15   35 1
  26   16   17 1
  27   16   36 1
  28   16   37 1
  29   17   18 1
  30   17   38 1
  31   17   39 1
  32   18   19 1
  33   18   40 1
  34   18   41 1
  35   19   20 am
  36   20   21 2
  37   20   22 1
  38   22   23 ar
  39   22   27 ar
  40   23   24 ar
  41   23   42 1
  42   24   25 ar
  43   24   43 1
  44   25   26 ar
  45   25   28 1
  46   26   27 ar
  47   26   44 1
  48   27   45 1

#	End of record

