#	Name: ASD06718002
#	Creating user name:	WinNT
#	Creation time:	15. 06. 2019 21:08

#	Modifying user name:	WinNT
#	Modification time:	15. 06. 2019 21:08

#	Program:	/corina/corina34_cracker 3.40 0067  02.08.2006

@<TRIPOS>MOLECULE
ASD06718002
  35   36    0    0    0
SMALL
NO_CHARGES


@<TRIPOS>ATOM
   1 C1            -0.0184     1.5028     0.0103 C.2     
   2 N2             1.3055    -0.4734    -0.4867 N.3     
   3 C3             0.0021    -0.0041     0.0020 C.3     
   4 C4            -0.2279    -0.5251     1.4221 C.3     
   5 C5            -0.3300    -2.0284     1.3953 C.ar    
   6 C6             0.8077    -2.8000     1.5442 C.ar    
   7 C7             0.7170    -4.1788     1.5200 C.ar    
   8 C8            -0.5174    -4.7888     1.3460 C.ar    
   9 O9            -0.6095    -6.1445     1.3222 O.3     
  10 C10           -0.8156    -6.7910     2.5004 C.ar    
  11 C11           -0.9161    -8.1741     2.5242 C.ar    
  12 C12           -1.1251    -8.8311     3.7218 C.ar    
  13 C13           -1.2344    -8.1069     4.9002 C.ar    
  14 O14           -1.4400    -8.7532     6.0788 O.3     
  15 C15           -1.1333    -6.7238     4.8761 C.ar    
  16 C16           -0.9196    -6.0675     3.6798 C.ar    
  17 C17           -1.6577    -4.0118     1.1967 C.ar    
  18 C18           -1.5618    -2.6334     1.2274 C.ar    
  19 O19            1.0197     2.1211     0.0037 O.2     
  20 O20           -1.1898     2.1580     0.0194 O.3     
  21 I21           -1.2777   -10.9202     3.7580 I       
  22 I22           -3.5234    -4.9275     0.9330 I       
  23 I23            2.4415    -5.3470     1.7451 I       
  24 H24            2.0536    -0.1430     0.1043 H       
  25 H25            1.3222    -1.4794    -0.5627 H       
  26 H26           -0.7864    -0.3745    -0.6531 H       
  27 H27            0.6068    -0.2288     2.0574 H       
  28 H28           -1.1526    -0.1051     1.8179 H       
  29 H29            1.7680    -2.3247     1.6793 H       
  30 H30           -0.8314    -8.7376     1.6067 H       
  31 H31           -0.6263    -9.0016     6.5384 H       
  32 H32           -1.2180    -6.1602     5.7935 H       
  33 H33           -0.8373    -4.9908     3.6618 H       
  34 H34           -2.4494    -2.0283     1.1157 H       
  35 H35           -1.1523     3.1243     0.0245 H       
@<TRIPOS>BOND
   1    1    3 1
   2    1   19 2
   3    1   20 1
   4    2    3 1
   5    2   24 1
   6    2   25 1
   7    3    4 1
   8    3   26 1
   9    4    5 1
  10    4   27 1
  11    4   28 1
  12    5    6 ar
  13    5   18 ar
  14    6    7 ar
  15    6   29 1
  16    7    8 ar
  17    7   23 1
  18    8    9 1
  19    8   17 ar
  20    9   10 1
  21   10   11 ar
  22   10   16 ar
  23   11   12 ar
  24   11   30 1
  25   12   13 ar
  26   12   21 1
  27   13   14 1
  28   13   15 ar
  29   14   31 1
  30   15   16 ar
  31   15   32 1
  32   16   33 1
  33   17   18 ar
  34   17   22 1
  35   18   34 1
  36   20   35 1

#	End of record

