#	Name: ASD01152250
#	Creating user name:	WinNT
#	Creation time:	15. 06. 2019 19:05

#	Modifying user name:	WinNT
#	Modification time:	15. 06. 2019 19:05

#	Program:	/corina/corina34_cracker 3.40 0067  02.08.2006

@<TRIPOS>MOLECULE
ASD01152250
  41   43    0    0    0
SMALL
NO_CHARGES


@<TRIPOS>ATOM
   1 N1            -0.0169     1.3957     0.0097 N.2     
   2 N2             0.0021    -0.0041     0.0020 N.am    
   3 C3             1.1646    -0.6796    -0.0127 C.2     
   4 N4             2.3448    -0.0325    -0.0205 N.am    
   5 C5             2.3760     1.3163    -0.0136 C.2     
   6 C6             1.1079     2.0612     0.0025 C.2     
   7 O7             1.1494    -1.8957    -0.0187 O.2     
   8 O8             3.4391     1.9086    -0.0201 O.2     
   9 O9             1.1059     3.4196     0.0094 O.3     
  10 C10           -0.1683     4.0664     0.0246 C.3     
  11 C11            3.5966    -0.7935    -0.0361 C.3     
  12 C12            4.0125    -1.0472    -1.4621 C.ar    
  13 C13            4.8252    -0.1404    -2.1166 C.ar    
  14 C14            5.2070    -0.3726    -3.4245 C.ar    
  15 C15            4.7757    -1.5129    -4.0787 C.ar    
  16 C16            3.9624    -2.4200    -3.4232 C.ar    
  17 C17            3.5859    -2.1895    -2.1134 C.ar    
  18 Cl18           5.2543    -1.8049    -5.7217 Cl      
  19 C19           -1.2058    -0.7102     0.0102 C.ar    
  20 C20           -2.1451    -0.4715     1.0057 C.ar    
  21 C21           -3.3360    -1.1701     1.0109 C.ar    
  22 C22           -3.5944    -2.1070     0.0268 C.ar    
  23 C23           -2.6616    -2.3473    -0.9652 C.ar    
  24 C24           -1.4710    -1.6472    -0.9801 C.ar    
  25 C25           -1.8641     0.5484     2.0790 C.3     
  26 Br26          -2.5182     2.3089     1.4975 Br      
  27 H27           -0.7332     3.7771    -0.8616 H       
  28 H28           -0.7165     3.7681     0.9183 H       
  29 H29           -0.0272     5.1472     0.0287 H       
  30 H30            4.3742    -0.2243     0.4734 H       
  31 H31            3.4496    -1.7453     0.4744 H       
  32 H32            5.1615     0.7498    -1.6060 H       
  33 H33            5.8416     0.3360    -3.9359 H       
  34 H34            3.6254    -3.3103    -3.9333 H       
  35 H35            2.9546    -2.8998    -1.6001 H       
  36 H36           -4.0666    -0.9850     1.7845 H       
  37 H37           -4.5265    -2.6523     0.0333 H       
  38 H38           -2.8662    -3.0798    -1.7320 H       
  39 H39           -0.7450    -1.8317    -1.7581 H       
  40 H40           -2.3720     0.2576     2.9985 H       
  41 H41           -0.7902     0.6009     2.2582 H       
@<TRIPOS>BOND
   1    1    2 1
   2    1    6 2
   3    2    3 am
   4    2   19 1
   5    3    4 am
   6    3    7 2
   7    4    5 am
   8    4   11 1
   9    5    6 1
  10    5    8 2
  11    6    9 1
  12    9   10 1
  13   10   27 1
  14   10   28 1
  15   10   29 1
  16   11   12 1
  17   11   30 1
  18   11   31 1
  19   12   13 ar
  20   12   17 ar
  21   13   14 ar
  22   13   32 1
  23   14   15 ar
  24   14   33 1
  25   15   16 ar
  26   15   18 1
  27   16   17 ar
  28   16   34 1
  29   17   35 1
  30   19   20 ar
  31   19   24 ar
  32   20   21 ar
  33   20   25 1
  34   21   22 ar
  35   21   36 1
  36   22   23 ar
  37   22   37 1
  38   23   24 ar
  39   23   38 1
  40   24   39 1
  41   25   26 1
  42   25   40 1
  43   25   41 1

#	End of record

