#	Name: ASD03081153
#	Creating user name:	WinNT
#	Creation time:	15. 06. 2019 20:27

#	Modifying user name:	WinNT
#	Modification time:	15. 06. 2019 20:27

#	Program:	/corina/corina34_cracker 3.40 0067  02.08.2006

@<TRIPOS>MOLECULE
ASD03081153
  29   32    0    0    0
SMALL
NO_CHARGES


@<TRIPOS>ATOM
   1 O1            -0.0144     1.2085     0.0087 O.3     
   2 N2             0.0021    -0.0041     0.0020 N.2     
   3 C3             1.2348    -0.4422    -0.0121 C.2     
   4 N4             2.0458     0.6363    -0.0141 N.2     
   5 C5             1.2412     1.6828    -0.0008 C.2     
   6 C6             3.0154    -2.1957    -0.0376 C.ar    
   7 C7             1.6625    -1.8637    -0.0234 C.ar    
   8 C8             0.7147    -2.8901    -0.0194 C.ar    
   9 C9             1.1647    -4.1996    -0.0299 C.ar    
  10 C10            2.5249    -4.4471    -0.0438 C.ar    
  11 N11            3.3963    -3.4566    -0.0472 N.ar    
  12 N12            2.5197     7.1335     0.0151 N.pl3   
  13 N13            1.2271     7.6668     0.0302 N.2     
  14 C14            0.3468     6.7073     0.0335 C.2     
  15 C15            1.0709     5.4393     0.0198 C.ar    
  16 C16            0.6770     4.0995     0.0172 C.ar    
  17 C17            1.6453     3.1039     0.0026 C.ar    
  18 C18            3.0063     3.4443    -0.0086 C.ar    
  19 C19            3.3962     4.7495    -0.0057 C.ar    
  20 C20            2.4417     5.7666     0.0085 C.ar    
  21 H21            3.7586    -1.4122    -0.0453 H       
  22 H22           -0.3421    -2.6679    -0.0081 H       
  23 H23            0.4608    -5.0187    -0.0269 H       
  24 H24            2.8796    -5.4672    -0.0516 H       
  25 H25            3.3409     7.6499     0.0064 H       
  26 H26           -0.7265     6.8278     0.0444 H       
  27 H27           -0.3712     3.8398     0.0271 H       
  28 H28            3.7525     2.6636    -0.0192 H       
  29 H29            4.4473     4.9975    -0.0140 H       
@<TRIPOS>BOND
   1    1    2 1
   2    1    5 1
   3    2    3 2
   4    3    4 1
   5    3    7 1
   6    4    5 2
   7    5   17 1
   8    6    7 ar
   9    6   11 ar
  10    6   21 1
  11    7    8 ar
  12    8    9 ar
  13    8   22 1
  14    9   10 ar
  15    9   23 1
  16   10   11 ar
  17   10   24 1
  18   12   13 1
  19   12   20 1
  20   12   25 1
  21   13   14 2
  22   14   15 1
  23   14   26 1
  24   15   16 ar
  25   15   20 ar
  26   16   17 ar
  27   16   27 1
  28   17   18 ar
  29   18   19 ar
  30   18   28 1
  31   19   20 ar
  32   19   29 1

#	End of record

