#	Name: ASD01410930
#	Creating user name:	WinNT
#	Creation time:	15. 06. 2019 19:19

#	Modifying user name:	WinNT
#	Modification time:	15. 06. 2019 19:19

#	Program:	/corina/corina34_cracker 3.40 0067  02.08.2006

@<TRIPOS>MOLECULE
ASD01410930
  73   75    0    0    0
SMALL
NO_CHARGES


@<TRIPOS>ATOM
   1 S1            -1.6479     0.6869    -0.4487 S.3     
   2 C2            -0.1141     0.0083     0.0785 C.2     
   3 C3            -0.0291    -1.3058    -0.3185 C.2     
   4 C4            -1.1252    -1.7625    -1.0097 C.2     
   5 C5            -2.1142    -0.8386    -1.1872 C.2     
   6 C6            -3.3485    -1.0769    -1.8729 C.1     
   7 C7            -4.3605    -1.2723    -2.4351 C.1     
   8 C8            -5.6293    -1.5172    -3.1400 C.3     
   9 C9            -5.6642    -2.9628    -3.6400 C.3     
  10 C10           -6.7987    -1.2805    -2.1822 C.3     
  11 C11            0.8807     0.7072     0.8003 C.2     
  12 N12            1.0788    -2.1085    -0.0429 N.am    
  13 O13            0.7423     2.0298     1.0328 O.3     
  14 O14            1.8621     0.1164     1.2122 O.2     
  15 C15            1.2216    -2.7325     1.2749 C.3     
  16 C16            2.0174    -2.3095    -0.9890 C.2     
  17 C17            1.9339    -1.5739    -2.3016 C.3     
  18 O18            2.9293    -3.0824    -0.7839 O.2     
  19 C19            0.4441    -4.0230     1.3064 C.2     
  20 C20            2.3967    -2.4945    -3.4325 C.3     
  21 C21            2.3119    -1.7477    -4.7652 C.3     
  22 C22            3.2106    -0.5105    -4.7146 C.3     
  23 C23            2.7477     0.4102    -3.5836 C.3     
  24 C24            2.8326    -0.3367    -2.2510 C.3     
  25 C25            3.1257     0.2363    -6.0472 C.3     
  26 N26            0.3620    -4.7326     2.4493 N.am    
  27 O27           -0.1079    -4.4231     0.3033 O.2     
  28 C28           -5.7439    -0.5629    -4.3304 C.3     
  29 C29           -0.3923    -5.9926     2.4957 C.3     
  30 C30           -1.4085    -5.9170     3.6396 C.3     
  31 C31           -0.6809    -5.5718     4.9410 C.3     
  32 C32           -0.0064    -4.2050     4.8031 C.3     
  33 C33            1.0304    -4.2640     3.6710 C.3     
  34 O34           -1.6214    -5.5322     6.0161 O.3     
  35 C35           -1.0698    -5.8917     7.2844 C.3     
  36 H36           -1.1984    -2.7731    -1.3835 H       
  37 H37           -5.5826    -3.6426    -2.7919 H       
  38 H38           -6.6037    -3.1441    -4.1619 H       
  39 H39           -4.8311    -3.1314    -4.3223 H       
  40 H40           -6.7739    -0.2506    -1.8260 H       
  41 H41           -7.7383    -1.4619    -2.7041 H       
  42 H42           -6.7171    -1.9603    -1.3341 H       
  43 H43            1.4719     2.4197     1.5334 H       
  44 H44            2.2746    -2.9380     1.4674 H       
  45 H45            0.8372    -2.0579     2.0399 H       
  46 H46            0.9034    -1.2673    -2.4813 H       
  47 H47            3.4271    -2.8011    -3.2528 H       
  48 H48            1.7564    -3.3759    -3.4686 H       
  49 H49            2.6416    -2.4036    -5.5709 H       
  50 H50            1.2814    -1.4411    -4.9449 H       
  51 H51            4.2410    -0.8171    -4.5348 H       
  52 H52            3.3880     1.2916    -3.5476 H       
  53 H53            1.7173     0.7167    -3.7633 H       
  54 H54            2.5028     0.3192    -1.4452 H       
  55 H55            3.8630    -0.6432    -2.0712 H       
  56 H56            2.0953     0.5429    -6.2269 H       
  57 H57            3.7660     1.1177    -6.0111 H       
  58 H58            3.4555    -0.4196    -6.8529 H       
  59 H59           -4.9108    -0.7315    -5.0127 H       
  60 H60           -6.6835    -0.7443    -4.8523 H       
  61 H61           -5.7191     0.4670    -3.9742 H       
  62 H62           -0.9157    -6.1401     1.5511 H       
  63 H63            0.2927    -6.8224     2.6697 H       
  64 H64           -2.1468    -5.1459     3.4199 H       
  65 H65           -1.9081    -6.8799     3.7465 H       
  66 H66            0.0742    -6.3303     5.1471 H       
  67 H67           -0.7579    -3.4500     4.5725 H       
  68 H68            0.4919    -3.9492     5.7382 H       
  69 H69            1.8290    -4.9557     3.9389 H       
  70 H70            1.4459    -3.2706     3.5020 H       
  71 H71           -1.8466    -5.8368     8.0471 H       
  72 H72           -0.6794    -6.9082     7.2358 H       
  73 H73           -0.2628    -5.2042     7.5376 H       
@<TRIPOS>BOND
   1    1    2 1
   2    1    5 1
   3    2    3 2
   4    2   11 1
   5    3    4 1
   6    3   12 1
   7    4    5 2
   8    4   36 1
   9    5    6 1
  10    6    7 3
  11    7    8 1
  12    8    9 1
  13    8   10 1
  14    8   28 1
  15    9   37 1
  16    9   38 1
  17    9   39 1
  18   10   40 1
  19   10   41 1
  20   10   42 1
  21   11   13 1
  22   11   14 2
  23   12   15 1
  24   12   16 am
  25   13   43 1
  26   15   19 1
  27   15   44 1
  28   15   45 1
  29   16   18 2
  30   16   17 1
  31   17   20 1
  32   17   24 1
  33   17   46 1
  34   19   26 am
  35   19   27 2
  36   20   21 1
  37   20   47 1
  38   20   48 1
  39   21   22 1
  40   21   49 1
  41   21   50 1
  42   22   23 1
  43   22   25 1
  44   22   51 1
  45   23   24 1
  46   23   52 1
  47   23   53 1
  48   24   54 1
  49   24   55 1
  50   25   56 1
  51   25   57 1
  52   25   58 1
  53   26   29 1
  54   26   33 1
  55   28   59 1
  56   28   60 1
  57   28   61 1
  58   29   30 1
  59   29   62 1
  60   29   63 1
  61   30   31 1
  62   30   64 1
  63   30   65 1
  64   31   32 1
  65   31   34 1
  66   31   66 1
  67   32   33 1
  68   32   67 1
  69   32   68 1
  70   33   69 1
  71   33   70 1
  72   34   35 1
  73   35   71 1
  74   35   72 1
  75   35   73 1

#	End of record

