#	Name: ASD01883881
#	Creating user name:	WinNT
#	Creation time:	15. 06. 2019 19:47

#	Modifying user name:	WinNT
#	Modification time:	15. 06. 2019 19:47

#	Program:	/corina/corina34_cracker 3.40 0067  02.08.2006

@<TRIPOS>MOLECULE
ASD01883881
  56   59    0    0    0
SMALL
NO_CHARGES


@<TRIPOS>ATOM
   1 C1             1.6518     1.2372    -0.9182 C.ar    
   2 C2             2.0372    -0.0605    -1.0903 C.ar    
   3 C3             3.3949    -0.4030    -1.0329 C.ar    
   4 C4             4.3560     0.5970    -0.7973 C.ar    
   5 C5             3.9496     1.9085    -0.6247 C.ar    
   6 C6             2.6007     2.2291    -0.6848 C.ar    
   7 C7             3.8112    -1.7954    -1.2170 C.2     
   8 O8             4.9876    -2.0886    -1.1667 O.2     
   9 C9             2.7785    -2.8637    -1.4687 C.3     
  10 O10            5.6726     0.2775    -0.7392 O.3     
  11 C11            4.9708     2.9874    -0.3712 C.3     
  12 C12            5.4331     3.5757    -1.7057 C.3     
  13 C13            6.4699     4.6710    -1.4484 C.3     
  14 O14            2.2046     3.5156    -0.5157 O.3     
  15 C15            0.8017     3.7776    -0.5899 C.3     
  16 C16            0.5537     5.2491    -0.3797 C.ar    
  17 C17            0.1204     7.0893     1.0928 C.ar    
  18 C18            0.3488     5.7396     0.8965 C.ar    
  19 C19            0.5369     6.1077    -1.4620 C.ar    
  20 C20            0.3085     7.4623    -1.2678 C.ar    
  21 C21            0.0975     7.9511     0.0138 C.ar    
  22 O22            0.2920     8.3090    -2.3305 O.3     
  23 C23           -0.8071     8.3117    -3.1255 C.ar    
  24 C24           -2.9491     7.5540    -3.5276 C.ar    
  25 N25           -1.8587     7.5832    -2.7878 N.ar    
  26 C26           -0.8158     9.0844    -4.2812 C.ar    
  27 C27           -1.9389     9.0826    -5.0856 C.ar    
  28 C28           -3.0307     8.2968    -4.7015 C.ar    
  29 C29           -4.2608     8.2604    -5.5314 C.2     
  30 N30           -5.3570     7.5709    -5.2846 N.2     
  31 N31           -6.1928     7.8049    -6.2372 N.pl3   
  32 N32           -5.6613     8.6206    -7.0794 N.2     
  33 N33           -4.4754     8.9267    -6.6747 N.2     
  34 H34            0.6047     1.4971    -0.9677 H       
  35 H35            1.2953    -0.8243    -1.2706 H       
  36 H36            2.6123    -2.9627    -2.5414 H       
  37 H37            3.1323    -3.8130    -1.0666 H       
  38 H38            1.8440    -2.5879    -0.9801 H       
  39 H39            6.1259     0.3212    -1.5922 H       
  40 H40            4.5248     3.7739     0.2376 H       
  41 H41            5.8259     2.5621     0.1542 H       
  42 H42            5.8791     2.7891    -2.3145 H       
  43 H43            4.5780     4.0009    -2.2311 H       
  44 H44            7.3250     4.2457    -0.9230 H       
  45 H45            6.7993     5.0901    -2.3991 H       
  46 H46            6.0240     5.4576    -0.8396 H       
  47 H47            0.4284     3.4827    -1.5706 H       
  48 H48            0.2844     3.2080     0.1821 H       
  49 H49           -0.0401     7.4698     2.0907 H       
  50 H50            0.3667     5.0674     1.7416 H       
  51 H51            0.7018     5.7248    -2.4583 H       
  52 H52           -0.0812     9.0051     0.1675 H       
  53 H53           -3.7879     6.9473    -3.2197 H       
  54 H54            0.0454     9.6796    -4.5468 H       
  55 H55           -1.9733     9.6736    -5.9889 H       
  56 H56           -7.0827     7.4256    -6.3086 H       
@<TRIPOS>BOND
   1    1    2 ar
   2    1    6 ar
   3    1   34 1
   4    2    3 ar
   5    2   35 1
   6    3    4 ar
   7    3    7 1
   8    4    5 ar
   9    4   10 1
  10    5    6 ar
  11    5   11 1
  12    6   14 1
  13    7    8 2
  14    7    9 1
  15    9   36 1
  16    9   37 1
  17    9   38 1
  18   10   39 1
  19   11   12 1
  20   11   40 1
  21   11   41 1
  22   12   13 1
  23   12   42 1
  24   12   43 1
  25   13   44 1
  26   13   45 1
  27   13   46 1
  28   14   15 1
  29   15   16 1
  30   15   47 1
  31   15   48 1
  32   16   19 ar
  33   16   18 ar
  34   17   18 ar
  35   17   21 ar
  36   17   49 1
  37   18   50 1
  38   19   20 ar
  39   19   51 1
  40   20   21 ar
  41   20   22 1
  42   21   52 1
  43   22   23 1
  44   23   26 ar
  45   23   25 ar
  46   24   25 ar
  47   24   28 ar
  48   24   53 1
  49   26   27 ar
  50   26   54 1
  51   27   28 ar
  52   27   55 1
  53   28   29 1
  54   29   30 2
  55   29   33 1
  56   30   31 1
  57   31   32 1
  58   31   56 1
  59   32   33 2

#	End of record

