#	Name: ASD04880247
#	Creating user name:	WinNT
#	Creation time:	15. 06. 2019 20:53

#	Modifying user name:	WinNT
#	Modification time:	15. 06. 2019 20:53

#	Program:	/corina/corina34_cracker 3.40 0067  02.08.2006

@<TRIPOS>MOLECULE
ASD04880247
  49   52    0    0    0
SMALL
NO_CHARGES


@<TRIPOS>ATOM
   1 C1            -0.0177     1.4673     0.0067 C.3     
   2 N2             0.0021    -0.0042     0.0031 N.am    
   3 N3             1.3266    -0.4369    -0.0062 N.2     
   4 C4             2.1922     0.5178    -0.0094 C.2     
   5 C5             1.4757     1.8492    -0.0018 C.3     
   6 C6            -1.0835    -0.8028     0.0085 C.2     
   7 C7            -0.9242    -2.2664    -0.1124 C.2     
   8 O8            -2.1941    -0.3186     0.1129 O.2     
   9 C9            -1.9991    -3.0749    -0.0051 C.2     
  10 C10           -1.7957    -4.5590    -0.1078 C.3     
  11 C11           -0.7190    -4.8576    -1.1519 C.3     
  12 C12            0.5262    -4.0839    -0.8322 C.2     
  13 C13            0.4124    -2.8488    -0.3574 C.2     
  14 C14            3.6554     0.3392    -0.0186 C.ar    
  15 C15            4.2042    -0.9458    -0.0251 C.ar    
  16 C16            4.4971     1.4546    -0.0266 C.ar    
  17 C17            5.8655     1.2853    -0.0351 C.ar    
  18 C18            6.4101     0.0093    -0.0362 C.ar    
  19 C19            5.5770    -1.1074    -0.0336 C.ar    
  20 O20            6.1145    -2.3566    -0.0347 O.3     
  21 C21            5.2014    -3.4558    -0.0319 C.3     
  22 O22            7.7598    -0.1518    -0.0451 O.3     
  23 C23            8.5549     1.0356    -0.0529 C.3     
  24 O24           -2.9894    -5.2480    -0.4717 O.3     
  25 C25           -2.8006    -6.6683    -0.5426 C.3     
  26 C26           -1.6776    -6.9997    -1.5266 C.3     
  27 O27           -0.4934    -6.2646    -1.1874 O.3     
  28 H28           -0.5157     1.8463    -0.8858 H       
  29 H29           -0.5044     1.8421     0.9071 H       
  30 H30            1.7194     2.4196    -0.8981 H       
  31 H31            1.7306     2.4155     0.8940 H       
  32 H32           -2.9851    -2.6631     0.1517 H       
  33 H33           -1.4636    -4.9373     0.8590 H       
  34 H34           -1.0840    -4.5474    -2.1310 H       
  35 H35            1.5000    -4.5233    -0.9904 H       
  36 H36            1.2984    -2.2703    -0.1413 H       
  37 H37            3.5574    -1.8107    -0.0231 H       
  38 H38            4.0759     2.4491    -0.0264 H       
  39 H39            6.5150     2.1482    -0.0412 H       
  40 H40            5.7597    -4.3920    -0.0331 H       
  41 H41            4.5764    -3.4066     0.8598 H       
  42 H42            4.5716    -3.4072    -0.9202 H       
  43 H43            9.6109     0.7657    -0.0595 H       
  44 H44            8.3240     1.6216    -0.9425 H       
  45 H45            8.3361     1.6252     0.8374 H       
  46 H46           -2.5397    -7.0481     0.4452 H       
  47 H47           -3.7249    -7.1397    -0.8767 H       
  48 H48           -1.4644    -8.0678    -1.4855 H       
  49 H49           -1.9913    -6.7340    -2.5361 H       
@<TRIPOS>BOND
   1    1    2 1
   2    1    5 1
   3    1   28 1
   4    1   29 1
   5    2    3 1
   6    2    6 am
   7    3    4 2
   8    4    5 1
   9    4   14 1
  10    5   30 1
  11    5   31 1
  12    6    7 1
  13    6    8 2
  14    7    9 2
  15    7   13 1
  16    9   10 1
  17    9   32 1
  18   10   11 1
  19   10   24 1
  20   10   33 1
  21   11   12 1
  22   11   27 1
  23   11   34 1
  24   12   13 2
  25   12   35 1
  26   13   36 1
  27   14   15 ar
  28   14   16 ar
  29   15   19 ar
  30   15   37 1
  31   16   17 ar
  32   16   38 1
  33   17   18 ar
  34   17   39 1
  35   18   19 ar
  36   18   22 1
  37   19   20 1
  38   20   21 1
  39   21   40 1
  40   21   41 1
  41   21   42 1
  42   22   23 1
  43   23   43 1
  44   23   44 1
  45   23   45 1
  46   24   25 1
  47   25   26 1
  48   25   46 1
  49   25   47 1
  50   26   27 1
  51   26   48 1
  52   26   49 1

#	End of record

