#	Name: ASD01911579
#	Creating user name:	WinNT
#	Creation time:	15. 06. 2019 19:58

#	Modifying user name:	WinNT
#	Modification time:	15. 06. 2019 19:58

#	Program:	/corina/corina34_cracker 3.40 0067  02.08.2006

@<TRIPOS>MOLECULE
ASD01911579
  46   49    0    0    0
SMALL
NO_CHARGES


@<TRIPOS>ATOM
   1 N1            -0.0641     1.1314     0.7250 N.am    
   2 C2             0.0021    -0.0041     0.0020 C.2     
   3 C3             1.2748    -0.7187    -0.1246 C.2     
   4 C4             1.4470    -2.0747    -0.0500 C.2     
   5 S5             2.8518     0.0159    -0.4072 S.3     
   6 C6             3.5963    -1.5802    -0.3909 C.2     
   7 N7             2.6740    -2.4890    -0.1928 N.2     
   8 C8             4.9923    -1.8438    -0.5711 C.1     
   9 C9             6.1367    -2.0599    -0.7188 C.1     
  10 C10            7.5327    -2.3234    -0.8990 C.ar    
  11 C11            8.0097    -3.6374    -0.8661 C.ar    
  12 C12            9.3552    -3.8832    -1.0409 C.ar    
  13 C13           10.2329    -2.8333    -1.2481 C.ar    
  14 C14            9.7684    -1.5301    -1.2820 C.ar    
  15 C15            8.4248    -1.2686    -1.1146 C.ar    
  16 O16           -0.9954    -0.4358    -0.5458 O.2     
  17 C17           -1.2994     1.9287     0.7670 C.3     
  18 C18            1.0950     1.6029     1.4979 C.3     
  19 C19            1.3540     3.0704     1.1406 C.3     
  20 N20            0.1206     3.8438     1.3365 N.3     
  21 C21           -0.9509     3.3840     0.4369 C.3     
  22 C22            0.3570     5.2114     1.1788 C.ar    
  23 C23           -0.6845     6.1191     1.3240 C.ar    
  24 C24            1.6352     5.6672     0.8820 C.ar    
  25 C25            1.8654     7.0200     0.7267 C.ar    
  26 C26            0.8253     7.9205     0.8668 C.ar    
  27 C27           -0.4473     7.4706     1.1674 C.ar    
  28 H28            0.6236    -2.7534     0.1160 H       
  29 H29            7.3261    -4.4576    -0.7038 H       
  30 H30            9.7252    -4.8975    -1.0157 H       
  31 H31           11.2857    -3.0321    -1.3836 H       
  32 H32           10.4595    -0.7160    -1.4437 H       
  33 H33            8.0638    -0.2511    -1.1412 H       
  34 H34           -2.0074     1.5459     0.0319 H       
  35 H35           -1.7368     1.8740     1.7639 H       
  36 H36            0.8836     1.5174     2.5638 H       
  37 H37            1.9707     1.0047     1.2463 H       
  38 H38            2.1389     3.4683     1.7838 H       
  39 H39            1.6662     3.1413     0.0987 H       
  40 H40           -0.6104     3.4475    -0.5966 H       
  41 H41           -1.8317     4.0123     0.5694 H       
  42 H42           -1.6786     5.7683     1.5588 H       
  43 H43            2.4480     4.9645     0.7732 H       
  44 H44            2.8589     7.3751     0.4960 H       
  45 H45            1.0082     8.9780     0.7456 H       
  46 H46           -1.2573     8.1765     1.2762 H       
@<TRIPOS>BOND
   1    1    2 am
   2    1   18 1
   3    1   17 1
   4    2    3 1
   5    2   16 2
   6    3    4 2
   7    3    5 1
   8    4    7 1
   9    4   28 1
  10    5    6 1
  11    6    7 2
  12    6    8 1
  13    8    9 3
  14    9   10 1
  15   10   11 ar
  16   10   15 ar
  17   11   12 ar
  18   11   29 1
  19   12   13 ar
  20   12   30 1
  21   13   14 ar
  22   13   31 1
  23   14   15 ar
  24   14   32 1
  25   15   33 1
  26   17   21 1
  27   17   34 1
  28   17   35 1
  29   18   19 1
  30   18   36 1
  31   18   37 1
  32   19   20 1
  33   19   38 1
  34   19   39 1
  35   20   21 1
  36   20   22 1
  37   21   40 1
  38   21   41 1
  39   22   23 ar
  40   22   24 ar
  41   23   27 ar
  42   23   42 1
  43   24   25 ar
  44   24   43 1
  45   25   26 ar
  46   25   44 1
  47   26   27 ar
  48   26   45 1
  49   27   46 1

#	End of record

