#	Name: ASD03430431
#	Creating user name:	WinNT
#	Creation time:	15. 06. 2019 20:41

#	Modifying user name:	WinNT
#	Modification time:	15. 06. 2019 20:41

#	Program:	/corina/corina34_cracker 3.40 0067  02.08.2006

@<TRIPOS>MOLECULE
ASD03430431
  19   20    0    0    0
SMALL
NO_CHARGES


@<TRIPOS>ATOM
   1 O1            -0.0161     1.3379     0.0094 O.3     
   2 C2             0.0021    -0.0041     0.0020 C.2     
   3 N3             1.2786    -0.4359    -0.0125 N.am    
   4 C4             2.1022     0.6896    -0.0143 C.ar    
   5 C5             1.2589     1.8007    -0.0003 C.ar    
   6 C6             3.4770     0.8612    -0.0256 C.ar    
   7 C7             4.0112     2.1401    -0.0230 C.ar    
   8 C8             3.1707     3.2450    -0.0090 C.ar    
   9 C9             1.7999     3.0764     0.0021 C.ar    
  10 O10           -0.9811    -0.7196     0.0082 O.2     
  11 C11            1.7205    -1.8326    -0.0238 C.3     
  12 O12            5.3597     2.3128    -0.0336 O.3     
  13 H13            4.1302     0.0012    -0.0361 H       
  14 H14            3.5904     4.2401    -0.0067 H       
  15 H15            1.1497     3.9388     0.0126 H       
  16 H16            0.8503    -2.4890    -0.0191 H       
  17 H17            2.3117    -2.0194    -0.9202 H       
  18 H18            2.3282    -2.0286     0.8596 H       
  19 H19            5.7422     2.3678    -0.9201 H       
@<TRIPOS>BOND
   1    1    2 1
   2    1    5 1
   3    2    3 am
   4    2   10 2
   5    3    4 1
   6    3   11 1
   7    4    5 ar
   8    4    6 ar
   9    5    9 ar
  10    6    7 ar
  11    6   13 1
  12    7    8 ar
  13    7   12 1
  14    8    9 ar
  15    8   14 1
  16    9   15 1
  17   11   16 1
  18   11   17 1
  19   11   18 1
  20   12   19 1

#	End of record

