#	Name: ASD03090578
#	Creating user name:	WinNT
#	Creation time:	15. 06. 2019 20:29

#	Modifying user name:	WinNT
#	Modification time:	15. 06. 2019 20:29

#	Program:	/corina/corina34_cracker 3.40 0067  02.08.2006

@<TRIPOS>MOLECULE
ASD03090578
  30   31    0    0    0
SMALL
NO_CHARGES


@<TRIPOS>ATOM
   1 N1            -0.0162     1.3436     0.0094 N.am    
   2 C2            -0.2205     0.1216    -0.5211 C.2     
   3 O3             0.6618    -0.4193    -1.1595 O.2     
   4 N4            -1.4027    -0.5009    -0.3441 N.am    
   5 S5            -3.0528    -2.6809    -0.7572 S.3     
   6 C6            -1.6134    -1.7618    -0.8916 C.2     
   7 N7            -0.7515    -2.4379    -1.5896 N.2     
   8 N8            -1.1035    -3.5732    -2.0152 N.2     
   9 C9            -2.3019    -3.9596    -1.7126 C.2     
  10 C10           -2.9404    -5.2666    -2.1063 C.3     
  11 F11           -1.9988    -6.0667    -2.7624 F       
  12 F12           -3.3959    -5.9270    -0.9602 F       
  13 F13           -4.0194    -5.0194    -2.9619 F       
  14 C14            1.2477     1.9427    -0.0771 C.ar    
  15 C15            1.3551     3.3183    -0.2310 C.ar    
  16 C16            2.6009     3.9081    -0.3157 C.ar    
  17 C17            3.7448     3.1264    -0.2474 C.ar    
  18 C18            3.6382     1.7519    -0.0937 C.ar    
  19 C19            2.3931     1.1615    -0.0031 C.ar    
  20 O20            4.9712     3.7076    -0.3318 O.3     
  21 C21            6.1059     2.8425    -0.2542 C.3     
  22 H22           -0.7451     1.8100     0.4476 H       
  23 H23           -2.1065    -0.0695     0.1651 H       
  24 H24            0.4646     3.9269    -0.2848 H       
  25 H25            2.6846     4.9782    -0.4354 H       
  26 H26            4.5292     1.1438    -0.0406 H       
  27 H27            2.3102     0.0918     0.1207 H       
  28 H28            7.0188     3.4326    -0.3344 H       
  29 H29            6.0965     2.3157     0.7000 H       
  30 H30            6.0679     2.1194    -1.0689 H       
@<TRIPOS>BOND
   1    1    2 am
   2    1   14 1
   3    1   22 1
   4    2    3 2
   5    2    4 am
   6    4    6 1
   7    4   23 1
   8    5    6 1
   9    5    9 1
  10    6    7 2
  11    7    8 1
  12    8    9 2
  13    9   10 1
  14   10   11 1
  15   10   12 1
  16   10   13 1
  17   14   15 ar
  18   14   19 ar
  19   15   16 ar
  20   15   24 1
  21   16   17 ar
  22   16   25 1
  23   17   18 ar
  24   17   20 1
  25   18   19 ar
  26   18   26 1
  27   19   27 1
  28   20   21 1
  29   21   28 1
  30   21   29 1
  31   21   30 1

#	End of record

