#	Name: ASD01560048
#	Creating user name:	WinNT
#	Creation time:	15. 06. 2019 19:22

#	Modifying user name:	WinNT
#	Modification time:	15. 06. 2019 19:22

#	Program:	/corina/corina34_cracker 3.40 0067  02.08.2006

@<TRIPOS>MOLECULE
ASD01560048
  42   45    0    0    0
SMALL
NO_CHARGES


@<TRIPOS>ATOM
   1 C1            -0.0173     1.4248     0.0099 C.3     
   2 O2             0.0021    -0.0041     0.0020 O.3     
   3 C3             0.6260    -0.6186     1.0418 C.ar    
   4 C4             0.6808    -2.0044     1.0951 C.ar    
   5 C5             1.3130    -2.6313     2.1487 C.ar    
   6 C6             1.8977    -1.8710     3.1610 C.ar    
   7 C7             1.8407    -0.4787     3.1042 C.ar    
   8 C8             1.2117     0.1415     2.0447 C.ar    
   9 C9             2.5774    -2.5409     4.2948 C.2     
  10 C10            2.0546    -3.5793     5.0852 C.2     
  11 N11            2.9428    -3.9111     5.9851 N.2     
  12 N12            4.0795    -3.1114     5.8268 N.am    
  13 C13            3.8551    -2.2636     4.7722 C.2     
  14 N14            4.7994    -1.3781     4.4019 N.2     
  15 C15            5.9442    -1.3191     5.0482 C.2     
  16 S16            7.1709    -0.1551     4.5533 S.3     
  17 C17            6.3137     0.6354     3.1689 C.3     
  18 C18            7.1989     1.6984     2.5711 C.2     
  19 N19            7.3764     2.8912     3.2201 N.am    
  20 C20            8.1646     3.8465     2.6946 C.2     
  21 O21            8.3079     4.8983     3.2875 O.2     
  22 N22            8.7972     3.6544     1.5222 N.am    
  23 C23            8.6487     2.4941     0.8517 C.2     
  24 O24            9.2206     2.3200    -0.2094 O.2     
  25 C25            7.8255     1.4775     1.3953 C.2     
  26 Cl26           7.6155    -0.0273     0.5556 Cl      
  27 N27            6.1879    -2.1598     6.1069 N.am    
  28 C28            5.2536    -3.0553     6.4870 C.2     
  29 O29            5.4655    -3.8010     7.4234 O.2     
  30 H30            1.0053     1.8021     0.0021 H       
  31 H31           -0.5445     1.7859    -0.8732 H       
  32 H32           -0.5275     1.7763     0.9067 H       
  33 H33            0.2275    -2.5927     0.3110 H       
  34 H34            1.3549    -3.7097     2.1897 H       
  35 H35            2.2921     0.1133     3.8866 H       
  36 H36            1.1675     1.2196     1.9998 H       
  37 H37            1.0795    -4.0287     4.9684 H       
  38 H38            6.0812    -0.1125     2.4108 H       
  39 H39            5.3897     1.0904     3.5258 H       
  40 H40            6.9294     3.0488     4.0664 H       
  41 H41            9.3620     4.3539     1.1580 H       
  42 H42            7.0337    -2.1118     6.5792 H       
@<TRIPOS>BOND
   1    1    2 1
   2    1   30 1
   3    1   31 1
   4    1   32 1
   5    2    3 1
   6    3    4 ar
   7    3    8 ar
   8    4    5 ar
   9    4   33 1
  10    5    6 ar
  11    5   34 1
  12    6    7 ar
  13    6    9 1
  14    7    8 ar
  15    7   35 1
  16    8   36 1
  17    9   10 1
  18    9   13 2
  19   10   11 2
  20   10   37 1
  21   11   12 1
  22   12   13 1
  23   12   28 am
  24   13   14 1
  25   14   15 2
  26   15   16 1
  27   15   27 1
  28   16   17 1
  29   17   18 1
  30   17   38 1
  31   17   39 1
  32   18   19 1
  33   18   25 2
  34   19   20 am
  35   19   40 1
  36   20   21 2
  37   20   22 am
  38   22   23 am
  39   22   41 1
  40   23   24 2
  41   23   25 1
  42   25   26 1
  43   27   28 am
  44   27   42 1
  45   28   29 2

#	End of record

