#	Name: ASD01812615
#	Creating user name:	WinNT
#	Creation time:	15. 06. 2019 19:28

#	Modifying user name:	WinNT
#	Modification time:	15. 06. 2019 19:28

#	Program:	/corina/corina34_cracker 3.40 0067  02.08.2006

@<TRIPOS>MOLECULE
ASD01812615
  52   56    0    0    0
SMALL
NO_CHARGES


@<TRIPOS>ATOM
   1 O1             0.4109     0.1908     0.1169 O.3     
   2 C2             0.1125    -1.1266    -0.0063 C.ar    
   3 C3             1.1288    -2.0653    -0.1039 C.ar    
   4 C4             0.8270    -3.4070    -0.2293 C.ar    
   5 C5            -0.4940    -3.8270    -0.2582 C.ar    
   6 C6            -1.5119    -2.9085    -0.1620 C.ar    
   7 C7            -1.2250    -1.5469    -0.0296 C.ar    
   8 C8            -3.0155    -3.0285    -0.1615 C.3     
   9 N9            -3.5352    -1.6627    -0.0273 N.am    
  10 C10           -2.4977    -0.8121     0.0566 C.2     
  11 C11           -4.9509    -1.2890     0.0191 C.3     
  12 C12           -5.4257    -1.2958     1.4493 C.ar    
  13 O13           -2.5964     0.3941     0.1739 O.2     
  14 C14            1.7202     0.5482     0.1403 C.ar    
  15 C15            2.4105     0.6130     1.3579 C.ar    
  16 C16           -5.3345    -0.1444     2.2108 C.ar    
  17 C17           -5.7674    -0.1442     3.5209 C.ar    
  18 C18           -6.2980    -1.3082     4.0773 C.ar    
  19 C19           -6.3873    -2.4660     3.3042 C.ar    
  20 C20           -5.9561    -2.4518     1.9935 C.ar    
  21 C21            1.7385     0.3026     2.5838 C.1     
  22 C22            2.3836     0.8458    -1.0429 C.ar    
  23 C23            3.7173     1.2090    -1.0163 C.ar    
  24 C24            4.4005     1.2784     0.1867 C.ar    
  25 C25            3.7584     0.9817     1.3694 C.ar    
  26 N26            1.2054     0.0565     3.5563 N.1     
  27 F27            1.7252     0.7798    -2.2208 F       
  28 C28           -6.7637    -1.3150     5.4818 C.2     
  29 N29           -6.4015    -0.4345     6.4570 N.pl3   
  30 C30           -7.6410    -2.2015     6.0396 C.2     
  31 C31           -7.8076    -1.8525     7.3799 C.2     
  32 N32           -7.0708    -0.8004     7.6319 N.2     
  33 C33           -5.4775     0.6920     6.3042 C.3     
  34 H34            2.1602    -1.7457    -0.0821 H       
  35 H35            1.6235    -4.1324    -0.3055 H       
  36 H36           -0.7235    -4.8777    -0.3568 H       
  37 H37           -3.3566    -3.4688    -1.0984 H       
  38 H38           -3.3425    -3.6383     0.6807 H       
  39 H39           -5.0773    -0.2912    -0.4010 H       
  40 H40           -5.5346    -2.0040    -0.5609 H       
  41 H41           -4.9232     0.7560     1.7790 H       
  42 H42           -5.6953     0.7552     4.1145 H       
  43 H43           -6.7972    -3.3703     3.7292 H       
  44 H44           -6.0291    -3.3462     1.3925 H       
  45 H45            4.2295     1.4397    -1.9388 H       
  46 H46            5.4423     1.5628     0.1975 H       
  47 H47            4.2965     1.0337     2.3043 H       
  48 H48           -8.1208    -3.0257     5.5327 H       
  49 H49           -8.4410    -2.3631     8.0901 H       
  50 H50           -6.0166     1.5533     5.9099 H       
  51 H51           -5.0488     0.9445     7.2740 H       
  52 H52           -4.6794     0.4163     5.6149 H       
@<TRIPOS>BOND
   1    1    2 1
   2    1   14 1
   3    2    3 ar
   4    2    7 ar
   5    3    4 ar
   6    3   34 1
   7    4    5 ar
   8    4   35 1
   9    5    6 ar
  10    5   36 1
  11    6    8 1
  12    6    7 ar
  13    7   10 1
  14    8    9 1
  15    8   37 1
  16    8   38 1
  17    9   10 am
  18    9   11 1
  19   10   13 2
  20   11   12 1
  21   11   39 1
  22   11   40 1
  23   12   16 ar
  24   12   20 ar
  25   14   22 ar
  26   14   15 ar
  27   15   21 1
  28   15   25 ar
  29   16   17 ar
  30   16   41 1
  31   17   18 ar
  32   17   42 1
  33   18   19 ar
  34   18   28 1
  35   19   20 ar
  36   19   43 1
  37   20   44 1
  38   21   26 3
  39   22   23 ar
  40   22   27 1
  41   23   24 ar
  42   23   45 1
  43   24   25 ar
  44   24   46 1
  45   25   47 1
  46   28   30 2
  47   28   29 1
  48   29   32 1
  49   29   33 1
  50   30   31 1
  51   30   48 1
  52   31   32 2
  53   31   49 1
  54   33   50 1
  55   33   51 1
  56   33   52 1

#	End of record

