#	Name: ASD01882404
#	Creating user name:	WinNT
#	Creation time:	15. 06. 2019 19:44

#	Modifying user name:	WinNT
#	Modification time:	15. 06. 2019 19:44

#	Program:	/corina/corina34_cracker 3.40 0067  02.08.2006

@<TRIPOS>MOLECULE
ASD01882404
  46   49    0    0    0
SMALL
NO_CHARGES


@<TRIPOS>ATOM
   1 C1             0.7178     1.4942     1.0695 C.2     
   2 C2             0.7761     0.0323     1.1178 C.2     
   3 C3             1.2465    -0.6462    -0.0133 C.2     
   4 C4             1.6414     0.0965    -1.1426 C.2     
   5 C5             1.5738     1.4411    -1.1493 C.2     
   6 N6             1.1222     2.1431    -0.0714 N.pl3   
   7 N7             0.4798     3.5838     1.3948 N.2     
   8 N8             0.3345     2.4203     1.9253 N.2     
   9 C9             0.9541     3.4735     0.1826 C.2     
  10 C10            0.3645    -0.6831     2.2879 C.1     
  11 N11            0.0379    -1.2507     3.2162 N.1     
  12 N12            1.3225    -2.0264    -0.0210 N.pl3   
  13 C13            2.6200    -2.7040    -0.1472 C.3     
  14 C14            2.5474    -3.6951    -1.3131 C.3     
  15 C15            1.3627    -4.6404    -1.1007 C.3     
  16 C16            0.0628    -3.8332    -1.0712 C.3     
  17 C17            0.1078    -2.8437     0.1030 C.3     
  18 C18            1.3084    -5.6385    -2.2285 C.ar    
  19 C19            1.4090    -6.9908    -1.9601 C.ar    
  20 C20            1.3592    -7.9063    -2.9945 C.ar    
  21 C21            1.2084    -7.4696    -4.2974 C.ar    
  22 C22            1.1069    -6.1174    -4.5657 C.ar    
  23 C23            1.1523    -5.2021    -3.5308 C.ar    
  24 C24            1.2580     4.6072    -0.7627 C.3     
  25 C25            0.9270     5.9386    -0.0854 C.3     
  26 F26            2.6151     4.5809    -1.1014 F       
  27 F27            0.4856     4.4684    -1.9209 F       
  28 H28            2.0050    -0.4212    -2.0179 H       
  29 H29            1.8858     1.9783    -2.0327 H       
  30 H30            3.3995    -1.9673    -0.3419 H       
  31 H31            2.8434    -3.2404     0.7750 H       
  32 H32            2.4142    -3.1490    -2.2470 H       
  33 H33            3.4705    -4.2729    -1.3574 H       
  34 H34            1.4841    -5.1679    -0.1547 H       
  35 H35           -0.0470    -3.2859    -2.0074 H       
  36 H36           -0.7825    -4.5094    -0.9433 H       
  37 H37            0.1305    -3.3912     1.0453 H       
  38 H38           -0.7708    -2.1993     0.0736 H       
  39 H39            1.5268    -7.3320    -0.9422 H       
  40 H40            1.4385    -8.9628    -2.7849 H       
  41 H41            1.1702    -8.1849    -5.1057 H       
  42 H42            0.9894    -5.7762    -5.5837 H       
  43 H43            1.0693    -4.1458    -3.7401 H       
  44 H44            1.5288     6.0467     0.8169 H       
  45 H45            1.1468     6.7585    -0.7692 H       
  46 H46           -0.1304     5.9590     0.1784 H       
@<TRIPOS>BOND
   1    1    2 1
   2    1    6 1
   3    1    8 2
   4    2    3 2
   5    2   10 1
   6    3    4 1
   7    3   12 1
   8    4    5 2
   9    4   28 1
  10    5    6 1
  11    5   29 1
  12    6    9 1
  13    7    8 1
  14    7    9 2
  15    9   24 1
  16   10   11 3
  17   12   13 1
  18   12   17 1
  19   13   14 1
  20   13   30 1
  21   13   31 1
  22   14   15 1
  23   14   32 1
  24   14   33 1
  25   15   16 1
  26   15   18 1
  27   15   34 1
  28   16   17 1
  29   16   35 1
  30   16   36 1
  31   17   37 1
  32   17   38 1
  33   18   19 ar
  34   18   23 ar
  35   19   20 ar
  36   19   39 1
  37   20   21 ar
  38   20   40 1
  39   21   22 ar
  40   21   41 1
  41   22   23 ar
  42   22   42 1
  43   23   43 1
  44   24   25 1
  45   24   26 1
  46   24   27 1
  47   25   44 1
  48   25   45 1
  49   25   46 1

#	End of record

