#	Name: ASD01880424
#	Creating user name:	WinNT
#	Creation time:	15. 06. 2019 19:40

#	Modifying user name:	WinNT
#	Modification time:	15. 06. 2019 19:40

#	Program:	/corina/corina34_cracker 3.40 0067  02.08.2006

@<TRIPOS>MOLECULE
ASD01880424
  30   32    0    0    0
SMALL
NO_CHARGES


@<TRIPOS>ATOM
   1 O1            -0.0350     1.1051     1.1825 O.3     
   2 C2            -0.0241    -0.1895     0.8062 C.2     
   3 O3             1.0195    -0.8131     0.8039 O.2     
   4 C4            -1.2734    -0.8467     0.3990 C.2     
   5 C5            -2.5598    -0.1446     0.5155 C.2     
   6 N6            -2.6181     1.0854     0.9864 N.2     
   7 C7            -3.7951     1.7158     1.0878 C.ar    
   8 C8            -4.9915     1.0827     0.6963 C.ar    
   9 O9            -4.9724    -0.1775     0.2084 O.3     
  10 C10           -3.7947    -0.8270     0.0996 C.2     
  11 C11           -3.7412    -2.1104    -0.3926 C.2     
  12 C12           -2.5209    -2.7855    -0.5051 C.2     
  13 O13           -2.5011    -3.9244    -0.9449 O.2     
  14 C14           -1.2585    -2.1383    -0.1073 C.2     
  15 N15           -0.0686    -2.8184    -0.2254 N.pl3   
  16 C16           -6.2019     1.7623     0.8133 C.ar    
  17 C17           -6.2347     3.0480     1.3089 C.ar    
  18 C18           -5.0670     3.6884     1.6997 C.ar    
  19 C19           -3.8443     3.0401     1.5964 C.ar    
  20 C20           -2.6045     3.7224     2.0122 C.2     
  21 O21           -1.5363     3.1510     1.9200 O.2     
  22 O22           -2.6565     4.9797     2.4945 O.3     
  23 H23            0.8114     1.4940     1.4420 H       
  24 H24           -4.6530    -2.6034    -0.6957 H       
  25 H25           -0.0622    -3.7884    -0.2250 H       
  26 H26            0.7641    -2.3280    -0.3091 H       
  27 H27           -7.1200     1.2790     0.5135 H       
  28 H28           -7.1800     3.5633     1.3939 H       
  29 H29           -5.1101     4.6960     2.0860 H       
  30 H30           -1.8180     5.3854     2.7540 H       
@<TRIPOS>BOND
   1    1    2 1
   2    1   23 1
   3    2    3 2
   4    2    4 1
   5    4    5 1
   6    4   14 2
   7    5    6 2
   8    5   10 1
   9    6    7 1
  10    7    8 ar
  11    7   19 ar
  12    8    9 1
  13    8   16 ar
  14    9   10 1
  15   10   11 2
  16   11   12 1
  17   11   24 1
  18   12   13 2
  19   12   14 1
  20   14   15 1
  21   15   25 1
  22   15   26 1
  23   16   17 ar
  24   16   27 1
  25   17   18 ar
  26   17   28 1
  27   18   19 ar
  28   18   29 1
  29   19   20 1
  30   20   21 2
  31   20   22 1
  32   22   30 1

#	End of record

