#	Name: ASD01231334
#	Creating user name:	WinNT
#	Creation time:	15. 06. 2019 19:15

#	Modifying user name:	WinNT
#	Modification time:	15. 06. 2019 19:15

#	Program:	/corina/corina34_cracker 3.40 0067  02.08.2006

@<TRIPOS>MOLECULE
ASD01231334
  34   35    0    0    0
SMALL
NO_CHARGES


@<TRIPOS>ATOM
   1 C1            -3.4813     1.0825     1.4456 C.3     
   2 C2            -2.9993    -0.3694     1.4687 C.3     
   3 C3            -4.1980    -1.3073     1.3126 C.3     
   4 S4            -1.8364    -0.6423     0.1035 S.o2    
   5 O5            -2.5046    -0.5485    -1.1470 O.2     
   6 O6            -0.6199     0.0537     0.3381 O.2     
   7 N7            -1.4225    -2.2410     0.2265 N.am    
   8 C8            -0.6933    -2.7204     1.4033 C.3     
   9 C9            -1.1771    -4.1329     1.7943 C.3     
  10 C10           -0.1903    -5.0436     1.0334 C.3     
  11 C11            1.0661    -4.2156     0.8683 C.ar    
  12 C12            2.3585    -4.6009     0.5566 C.ar    
  13 C13            3.3635    -3.6517     0.4569 C.ar    
  14 C14            3.0710    -2.3123     0.6706 C.ar    
  15 C15            1.7816    -1.9312     0.9814 C.ar    
  16 C16            0.7772    -2.8804     1.0809 C.ar    
  17 O17            4.6319    -4.0318     0.1511 O.3     
  18 H18           -4.1801     1.2464     2.2659 H       
  19 H19           -2.6273     1.7506     1.5568 H       
  20 H20           -3.9799     1.2847     0.4976 H       
  21 H21           -2.5007    -0.5717     2.4166 H       
  22 H22           -3.8472    -2.3370     1.2433 H       
  23 H23           -4.8546    -1.2046     2.1766 H       
  24 H24           -4.7463    -1.0485     0.4068 H       
  25 H25           -1.6628    -2.8600    -0.4805 H       
  26 H26           -0.8264    -2.0308     2.2368 H       
  27 H27           -1.0952    -4.2865     2.8703 H       
  28 H28           -2.1993    -4.3002     1.4547 H       
  29 H29            0.0216    -5.9408     1.6150 H       
  30 H30           -0.5976    -5.3114     0.0585 H       
  31 H31            2.5844    -5.6439     0.3909 H       
  32 H32            3.8510    -1.5693     0.5936 H       
  33 H33            1.5544    -0.8886     1.1477 H       
  34 H34            4.8211    -4.0438    -0.7971 H       
@<TRIPOS>BOND
   1    1    2 1
   2    1   18 1
   3    1   19 1
   4    1   20 1
   5    2    3 1
   6    2    4 1
   7    2   21 1
   8    3   22 1
   9    3   23 1
  10    3   24 1
  11    4    5 2
  12    4    6 2
  13    4    7 am
  14    7    8 1
  15    7   25 1
  16    8    9 1
  17    8   16 1
  18    8   26 1
  19    9   10 1
  20    9   27 1
  21    9   28 1
  22   10   11 1
  23   10   29 1
  24   10   30 1
  25   11   12 ar
  26   11   16 ar
  27   12   13 ar
  28   12   31 1
  29   13   14 ar
  30   13   17 1
  31   14   15 ar
  32   14   32 1
  33   15   16 ar
  34   15   33 1
  35   17   34 1

#	End of record

