#	Name: ASD02030552
#	Creating user name:	WinNT
#	Creation time:	15. 06. 2019 20:15

#	Modifying user name:	WinNT
#	Modification time:	15. 06. 2019 20:15

#	Program:	/corina/corina34_cracker 3.40 0067  02.08.2006

@<TRIPOS>MOLECULE
ASD02030552
  47   49    0    0    0
SMALL
NO_CHARGES


@<TRIPOS>ATOM
   1 C1            -0.0167     1.3799     0.0096 C.ar    
   2 C2             0.0021    -0.0041     0.0020 C.ar    
   3 C3             1.2129    -0.6794    -0.0132 C.ar    
   4 C4             2.4003     0.0318    -0.0207 C.ar    
   5 C5             2.3781     1.4137    -0.0131 C.ar    
   6 C6             1.1707     2.0872     0.0021 C.ar    
   7 S7             1.1458     3.8490     0.0118 S.o2    
   8 O8             2.3844     4.2709    -0.5422 O.2     
   9 O9            -0.1147     4.2353    -0.5186 O.2     
  10 N10            1.1539     4.3306     1.5962 N.am    
  11 C11            2.3160     4.0471     2.4420 C.3     
  12 C12            2.2437     4.8852     3.6924 C.ar    
  13 C13            2.7310     6.8242     4.8069 C.ar    
  14 N14            2.7925     6.0867     3.7125 N.ar    
  15 C15            1.5959     4.3948     4.8174 C.ar    
  16 N16            1.5301     5.1240     5.9131 N.ar    
  17 C17            2.0857     6.3324     5.9404 C.ar    
  18 C18            2.0144     7.1551     7.1704 C.2     
  19 O19            2.5189     8.2604     7.1921 O.2     
  20 N20            1.3901     6.6777     8.2652 N.am    
  21 C21            1.3196     7.4913     9.4815 C.3     
  22 C22            0.5749     6.7335    10.5503 C.2     
  23 S23           -1.1644     6.7748    10.8293 S.3     
  24 C24            1.1163     5.9071    11.4502 C.2     
  25 N25            0.2513     5.3626    12.2821 N.2     
  26 C26           -0.9898     5.6822    12.1328 C.2     
  27 C27           -2.1221     5.1642    12.9816 C.3     
  28 F28           -1.1582    -0.6961     0.0098 F       
  29 F29            1.2337    -2.0302    -0.0202 F       
  30 C30            0.9661     3.0261     4.7860 C.3     
  31 H31           -0.9592     1.9071     0.0170 H       
  32 H32            3.3441    -0.4931    -0.0322 H       
  33 H33            3.3049     1.9681    -0.0189 H       
  34 H34            0.3893     4.8005     1.9642 H       
  35 H35            2.3198     2.9911     2.7121 H       
  36 H36            3.2291     4.2859     1.8968 H       
  37 H37            3.1802     7.8062     4.8234 H       
  38 H38            0.9874     5.7954     8.2479 H       
  39 H39            2.3285     7.7129     9.8294 H       
  40 H40            0.7968     8.4230     9.2656 H       
  41 H41            2.1758     5.7021    11.4922 H       
  42 H42           -2.5178     4.2493    12.5406 H       
  43 H43           -1.7561     4.9542    13.9867 H       
  44 H44           -2.9113     5.9143    13.0317 H       
  45 H45            1.6962     2.2827     5.1060 H       
  46 H46            0.1080     3.0054     5.4579 H       
  47 H47            0.6384     2.8001     3.7712 H       
@<TRIPOS>BOND
   1    1    2 ar
   2    1    6 ar
   3    1   31 1
   4    2    3 ar
   5    2   28 1
   6    3    4 ar
   7    3   29 1
   8    4    5 ar
   9    4   32 1
  10    5    6 ar
  11    5   33 1
  12    6    7 1
  13    7    8 2
  14    7    9 2
  15    7   10 am
  16   10   11 1
  17   10   34 1
  18   11   12 1
  19   11   35 1
  20   11   36 1
  21   12   15 ar
  22   12   14 ar
  23   13   14 ar
  24   13   17 ar
  25   13   37 1
  26   15   16 ar
  27   15   30 1
  28   16   17 ar
  29   17   18 1
  30   18   19 2
  31   18   20 am
  32   20   21 1
  33   20   38 1
  34   21   22 1
  35   21   39 1
  36   21   40 1
  37   22   24 2
  38   22   23 1
  39   23   26 1
  40   24   25 1
  41   24   41 1
  42   25   26 2
  43   26   27 1
  44   27   42 1
  45   27   43 1
  46   27   44 1
  47   30   45 1
  48   30   46 1
  49   30   47 1

#	End of record

