#	Name: ASD01884406
#	Creating user name:	WinNT
#	Creation time:	15. 06. 2019 19:48

#	Modifying user name:	WinNT
#	Modification time:	15. 06. 2019 19:48

#	Program:	/corina/corina34_cracker 3.40 0067  02.08.2006

@<TRIPOS>MOLECULE
ASD01884406
  35   37    0    0    0
SMALL
NO_CHARGES


@<TRIPOS>ATOM
   1 C1            -0.0164     1.3575     0.0095 C.2     
   2 C2             0.0021    -0.0041     0.0020 C.2     
   3 C3             1.2441    -0.6750    -0.0134 C.2     
   4 C4             2.4025     0.0467    -0.0206 C.2     
   5 N5             2.3701     1.4021    -0.0126 N.am    
   6 C6             1.1988     2.0651     0.0017 C.2     
   7 C7             1.2900    -2.1582    -0.0214 C.ar    
   8 C8             3.6267     2.1552    -0.0201 C.3     
   9 O9             1.1913     3.2854     0.0087 O.2     
  10 C10            4.0443     2.4215    -1.4434 C.ar    
  11 C11            3.6205     3.5705    -2.0845 C.ar    
  12 C12            4.0035     3.8148    -3.3901 C.ar    
  13 C13            4.8107     2.9103    -4.0544 C.ar    
  14 C14            5.2352     1.7617    -3.4129 C.ar    
  15 C15            4.8557     1.5196    -2.1059 C.ar    
  16 C16            0.8132    -2.8780     1.0718 C.ar    
  17 C17            1.8049    -2.8360    -1.1249 C.ar    
  18 C18            1.8455    -4.2154    -1.1276 C.ar    
  19 C19            1.3759    -4.9261    -0.0378 C.ar    
  20 C20            0.8584    -4.2588     1.0590 C.ar    
  21 Cl21           0.2715    -5.1580     2.4231 Cl      
  22 H22           -0.9563     1.8894     0.0168 H       
  23 H23           -0.9217    -0.5636     0.0082 H       
  24 H24            3.3529    -0.4662    -0.0325 H       
  25 H25            3.4858     3.1024     0.5005 H       
  26 H26            4.4006     1.5757     0.4832 H       
  27 H27            2.9899     4.2772    -1.5655 H       
  28 H28            3.6718     4.7121    -3.8913 H       
  29 H29            5.1093     3.1008    -5.0746 H       
  30 H30            5.8655     1.0549    -3.9320 H       
  31 H31            5.1874     0.6222    -1.6047 H       
  32 H32            0.4093    -2.3578     1.9278 H       
  33 H33            2.1713    -2.2825    -1.9768 H       
  34 H34            2.2445    -4.7411    -1.9825 H       
  35 H35            1.4093    -6.0056    -0.0444 H       
@<TRIPOS>BOND
   1    1    2 2
   2    1    6 1
   3    1   22 1
   4    2    3 1
   5    2   23 1
   6    3    4 2
   7    3    7 1
   8    4    5 1
   9    4   24 1
  10    5    6 am
  11    5    8 1
  12    6    9 2
  13    7   16 ar
  14    7   17 ar
  15    8   10 1
  16    8   25 1
  17    8   26 1
  18   10   11 ar
  19   10   15 ar
  20   11   12 ar
  21   11   27 1
  22   12   13 ar
  23   12   28 1
  24   13   14 ar
  25   13   29 1
  26   14   15 ar
  27   14   30 1
  28   15   31 1
  29   16   20 ar
  30   16   32 1
  31   17   18 ar
  32   17   33 1
  33   18   19 ar
  34   18   34 1
  35   19   20 ar
  36   19   35 1
  37   20   21 1

#	End of record

