#	Name: ASD02198336
#	Creating user name:	WinNT
#	Creation time:	15. 06. 2019 20:19

#	Modifying user name:	WinNT
#	Modification time:	15. 06. 2019 20:19

#	Program:	/corina/corina34_cracker 3.40 0067  02.08.2006

@<TRIPOS>MOLECULE
ASD02198336
  42   44    0    0    0
SMALL
NO_CHARGES


@<TRIPOS>ATOM
   1 C1             0.4769     1.5478     0.0831 C.2     
   2 C2             0.6368     0.1753     0.1473 C.2     
   3 S3             2.0609     2.2827     0.3169 S.3     
   4 C4             2.7730     0.7376     0.4745 C.2     
   5 N5             1.8768    -0.1998     0.3569 N.2     
   6 N6            -0.4123    -0.7183     0.0046 N.pl3   
   7 C7            -0.7323     2.2334    -0.1355 C.2     
   8 C8            -0.7739     3.7099    -0.0386 C.ar    
   9 O9            -1.7458     1.6112    -0.4048 O.2     
  10 N10            4.1134     0.5138     0.6952 N.pl3   
  11 C11           -1.7062     4.4339    -0.7816 C.ar    
  12 C12            0.1155     4.3817     0.8007 C.ar    
  13 C13            0.0741     5.7584     0.8888 C.ar    
  14 C14           -0.8466     6.4753     0.1475 C.ar    
  15 C15           -1.7394     5.8148    -0.6860 C.ar    
  16 C16            4.5769    -0.7865     0.9284 C.ar    
  17 C17            5.8811    -1.1291     0.5965 C.ar    
  18 C18            6.3376    -2.4118     0.8273 C.ar    
  19 C19            5.4937    -3.3580     1.3901 C.ar    
  20 C20            4.1907    -3.0167     1.7216 C.ar    
  21 C21            3.7345    -1.7328     1.4972 C.ar    
  22 O22           -2.6423     6.5245    -1.4129 O.3     
  23 C23           -2.6161     7.9461    -1.2704 C.3     
  24 O24            5.9439    -4.6210     1.6167 O.3     
  25 C25            5.0213    -5.5439     2.1988 C.3     
  26 H26           -1.3120    -0.3895    -0.1485 H       
  27 H27           -0.2472    -1.6726     0.0579 H       
  28 H28            4.7366     1.2571     0.6892 H       
  29 H29           -2.3999     3.9190    -1.4297 H       
  30 H30            0.8358     3.8246     1.3814 H       
  31 H31            0.7629     6.2772     1.5390 H       
  32 H32           -0.8747     7.5524     0.2206 H       
  33 H33            6.5380    -0.3928     0.1576 H       
  34 H34            7.3519    -2.6784     0.5691 H       
  35 H35            3.5342    -3.7540     2.1595 H       
  36 H36            2.7201    -1.4671     1.7557 H       
  37 H37           -2.8050     8.2105    -0.2300 H       
  38 H38           -1.6381     8.3233    -1.5693 H       
  39 H39           -3.3852     8.3889    -1.9032 H       
  40 H40            4.6972    -5.1699     3.1700 H       
  41 H41            4.1563    -5.6542     1.5449 H       
  42 H42            5.5067    -6.5116     2.3257 H       
@<TRIPOS>BOND
   1    1    2 2
   2    1    3 1
   3    1    7 1
   4    2    6 1
   5    2    5 1
   6    3    4 1
   7    4    5 2
   8    4   10 1
   9    6   26 1
  10    6   27 1
  11    7    8 1
  12    7    9 2
  13    8   11 ar
  14    8   12 ar
  15   10   16 1
  16   10   28 1
  17   11   15 ar
  18   11   29 1
  19   12   13 ar
  20   12   30 1
  21   13   14 ar
  22   13   31 1
  23   14   15 ar
  24   14   32 1
  25   15   22 1
  26   16   17 ar
  27   16   21 ar
  28   17   18 ar
  29   17   33 1
  30   18   19 ar
  31   18   34 1
  32   19   20 ar
  33   19   24 1
  34   20   21 ar
  35   20   35 1
  36   21   36 1
  37   22   23 1
  38   23   37 1
  39   23   38 1
  40   23   39 1
  41   24   25 1
  42   25   40 1
  43   25   41 1
  44   25   42 1

#	End of record

