#	Name: ASD01120311
#	Creating user name:	WinNT
#	Creation time:	15. 06. 2019 18:59

#	Modifying user name:	WinNT
#	Modification time:	15. 06. 2019 18:59

#	Program:	/corina/corina34_cracker 3.40 0067  02.08.2006

@<TRIPOS>MOLECULE
ASD01120311
  35   37    0    0    0
SMALL
NO_CHARGES


@<TRIPOS>ATOM
   1 N1             1.5364    -1.9877    -2.7056 N.pl3   
   2 C2             0.7327    -1.6667    -1.6093 C.ar    
   3 C3             1.0803    -0.6088    -0.7781 C.ar    
   4 C4             0.2858    -0.2905     0.3067 C.ar    
   5 C5            -0.8561    -1.0221     0.5688 C.ar    
   6 C6            -1.2094    -2.0820    -0.2583 C.ar    
   7 C7            -0.4170    -2.4004    -1.3522 C.ar    
   8 N8            -2.3639    -2.8221     0.0079 N.pl3   
   9 C9            -2.3429    -4.2096    -0.1053 C.ar    
  10 C10           -1.1494    -4.8720    -0.3280 C.ar    
  11 C11           -1.1248    -6.2541    -0.4409 C.ar    
  12 C12           -2.2843    -6.9906    -0.3338 C.ar    
  13 C13           -3.5002    -6.3510    -0.1097 C.ar    
  14 C14           -3.5358    -4.9486     0.0119 C.ar    
  15 C15           -4.8831    -4.5850     0.2320 C.2     
  16 C16           -5.6246    -5.7260     0.2417 C.2     
  17 N17           -4.7883    -6.8094     0.0383 N.pl3   
  18 C18           -7.0763    -5.7964     0.4404 C.2     
  19 O19           -7.7161    -4.7772     0.6153 O.2     
  20 O20           -7.7013    -6.9915     0.4292 O.3     
  21 N21           -2.2370    -8.4651    -0.4577 N.pl3   
  22 O22           -1.1739    -9.0259    -0.6541 O.2     
  23 O23           -3.2613    -9.1173    -0.3631 O.2     
  24 H24            2.3377    -1.4721    -2.8870 H       
  25 H25            1.2954    -2.7289    -3.2831 H       
  26 H26            1.9726    -0.0349    -0.9800 H       
  27 H27            0.5584     0.5320     0.9514 H       
  28 H28           -1.4749    -0.7707     1.4175 H       
  29 H29           -0.6892    -3.2234    -1.9965 H       
  30 H30           -3.1802    -2.3694     0.2717 H       
  31 H31           -0.2314    -4.3097    -0.4149 H       
  32 H32           -0.1860    -6.7588    -0.6152 H       
  33 H33           -5.2575    -3.5812     0.3684 H       
  34 H34           -5.0655    -7.7382     0.0011 H       
  35 H35           -8.6588    -6.9875     0.5645 H       
@<TRIPOS>BOND
   1    1    2 1
   2    1   24 1
   3    1   25 1
   4    2    3 ar
   5    2    7 ar
   6    3    4 ar
   7    3   26 1
   8    4    5 ar
   9    4   27 1
  10    5    6 ar
  11    5   28 1
  12    6    7 ar
  13    6    8 1
  14    7   29 1
  15    8    9 1
  16    8   30 1
  17    9   10 ar
  18    9   14 ar
  19   10   11 ar
  20   10   31 1
  21   11   12 ar
  22   11   32 1
  23   12   13 ar
  24   12   21 1
  25   13   14 ar
  26   13   17 1
  27   14   15 1
  28   15   16 2
  29   15   33 1
  30   16   17 1
  31   16   18 1
  32   17   34 1
  33   18   19 2
  34   18   20 1
  35   20   35 1
  36   21   22 2
  37   21   23 2

#	End of record

