#	Name: ASD01148350
#	Creating user name:	WinNT
#	Creation time:	15. 06. 2019 19:02

#	Modifying user name:	WinNT
#	Modification time:	15. 06. 2019 19:02

#	Program:	/corina/corina34_cracker 3.40 0067  02.08.2006

@<TRIPOS>MOLECULE
ASD01148350
  53   55    0    0    0
SMALL
NO_CHARGES


@<TRIPOS>ATOM
   1 C1            -0.4099     1.8298    -0.0440 C.ar    
   2 C2            -0.4708     0.4505     0.0159 C.ar    
   3 C3             0.6951    -0.2905     0.0951 C.ar    
   4 C4             1.9210     0.3500     0.1143 C.ar    
   5 C5             1.9807     1.7297     0.0544 C.ar    
   6 C6             0.8158     2.4694    -0.0248 C.ar    
   7 C7             3.3162     2.4276     0.0752 C.3     
   8 O8             4.3314     1.6182    -0.5523 O.3     
   9 C9             3.3021     3.6779    -0.8363 C.3     
  10 C10            3.8441     3.1372    -2.1458 C.2     
  11 N11            4.3963     1.9937    -1.9139 N.2     
  12 C12            3.7550     3.8039    -3.4598 C.ar    
  13 C13            4.2992     3.1921    -4.5922 C.ar    
  14 C14            3.1216     5.0440    -3.5724 C.ar    
  15 C15            3.0387     5.6657    -4.7980 C.ar    
  16 C16            3.5873     5.0565    -5.9288 C.ar    
  17 C17            4.2161     3.8139    -5.8172 C.ar    
  18 C18            3.4973     5.7236    -7.2445 C.2     
  19 O19            4.0694     5.2497    -8.2067 O.2     
  20 N20            2.7808     6.8574    -7.3776 N.am    
  21 C21            4.8084     3.1570    -7.0373 C.3     
  22 C22            3.7161     2.7961     1.5054 C.3     
  23 F23            3.7877     1.6355     2.2833 F       
  24 F24            4.9648     3.4267     1.4926 F       
  25 F25            2.7614     3.6629     2.0479 F       
  26 Cl26           0.6193    -2.0232     0.1710 Cl      
  27 C27            2.6916     7.5187    -8.6819 C.3     
  28 C28            1.8388     8.7553    -8.5608 C.2     
  29 N29            1.6156     9.5284    -9.6420 N.am    
  30 O30            1.3534     9.0547    -7.4905 O.2     
  31 C31            0.7866    10.7306    -9.5243 C.3     
  32 C32            0.6935    11.4212   -10.8864 C.3     
  33 F33            0.1177    10.5466   -11.8142 F       
  34 F34           -0.0982    12.5691   -10.7740 F       
  35 F35            1.9757    11.7792   -11.3164 F       
  36 H36           -1.3196     2.4081    -0.1103 H       
  37 H37           -1.4283    -0.0489     0.0013 H       
  38 H38            2.8313    -0.2278     0.1765 H       
  39 H39            0.8629     3.5473    -0.0716 H       
  40 H40            2.2865     4.0528    -0.9632 H       
  41 H41            3.9554     4.4544    -0.4383 H       
  42 H42            4.7853     2.2315    -4.5060 H       
  43 H43            2.6968     5.5147    -2.6982 H       
  44 H44            2.5490     6.6244    -4.8851 H       
  45 H45            2.3243     7.2356    -6.6099 H       
  46 H46            5.8049     3.5597    -7.2192 H       
  47 H47            4.8754     2.0813    -6.8744 H       
  48 H48            4.1734     3.3548    -7.9009 H       
  49 H49            3.6906     7.7976    -9.0169 H       
  50 H50            2.2430     6.8373    -9.4048 H       
  51 H51            2.0039     9.2889   -10.4980 H       
  52 H52           -0.2124    10.4516    -9.1892 H       
  53 H53            1.2353    11.4119    -8.8014 H       
@<TRIPOS>BOND
   1    1    2 ar
   2    1    6 ar
   3    1   36 1
   4    2    3 ar
   5    2   37 1
   6    3    4 ar
   7    3   26 1
   8    4    5 ar
   9    4   38 1
  10    5    6 ar
  11    5    7 1
  12    6   39 1
  13    7    8 1
  14    7    9 1
  15    7   22 1
  16    8   11 1
  17    9   10 1
  18    9   40 1
  19    9   41 1
  20   10   11 2
  21   10   12 1
  22   12   13 ar
  23   12   14 ar
  24   13   17 ar
  25   13   42 1
  26   14   15 ar
  27   14   43 1
  28   15   16 ar
  29   15   44 1
  30   16   17 ar
  31   16   18 1
  32   17   21 1
  33   18   19 2
  34   18   20 am
  35   20   27 1
  36   20   45 1
  37   21   46 1
  38   21   47 1
  39   21   48 1
  40   22   23 1
  41   22   24 1
  42   22   25 1
  43   27   28 1
  44   27   49 1
  45   27   50 1
  46   28   30 2
  47   28   29 am
  48   29   31 1
  49   29   51 1
  50   31   32 1
  51   31   52 1
  52   31   53 1
  53   32   33 1
  54   32   34 1
  55   32   35 1

#	End of record

