#	Name: ASD01813070
#	Creating user name:	WinNT
#	Creation time:	15. 06. 2019 19:29

#	Modifying user name:	WinNT
#	Modification time:	15. 06. 2019 19:29

#	Program:	/corina/corina34_cracker 3.40 0067  02.08.2006

@<TRIPOS>MOLECULE
ASD01813070
  53   56    0    0    0
SMALL
NO_CHARGES


@<TRIPOS>ATOM
   1 C1            -0.6636     1.4725     0.0041 C.2     
   2 C2            -0.4076     0.1541    -0.0325 C.2     
   3 N3            -1.4203    -0.7579     0.0643 N.pl3   
   4 C4            -2.7090    -0.4178     0.1860 C.2     
   5 C5            -3.0746     0.9133     0.2228 C.2     
   6 C6            -2.0085     1.9192     0.1320 C.2     
   7 O7            -2.2707     3.1112     0.1582 O.2     
   8 C8            -1.0779    -2.1820     0.0326 C.3     
   9 C9            -1.2003    -2.6968    -1.3785 C.ar    
  10 C10            0.4095     2.5252    -0.0779 C.3     
  11 C11            1.7038     1.9370    -0.6355 C.3     
  12 C12            2.0306     0.6651     0.1569 C.3     
  13 C13            0.9890    -0.3953    -0.1903 C.3     
  14 C14           -0.0795    -2.7666    -2.1861 C.ar    
  15 C15           -0.1859    -3.2373    -3.4792 C.ar    
  16 C16           -1.4251    -3.6425    -3.9706 C.ar    
  17 C17           -2.5508    -3.5700    -3.1527 C.ar    
  18 C18           -2.4320    -3.1030    -1.8593 C.ar    
  19 N19           -0.0452     3.6120    -0.9554 N.3     
  20 C20           -1.5457    -4.1490    -5.3602 C.ar    
  21 C21           -2.7850    -4.5542    -5.8516 C.ar    
  22 C22           -2.8914    -5.0245    -7.1449 C.ar    
  23 C23           -1.7706    -5.0944    -7.9525 C.ar    
  24 C24           -0.5378    -4.6939    -7.4696 C.ar    
  25 C25           -0.4211    -4.2157    -6.1802 C.ar    
  26 C26            0.6325     4.8730    -0.6262 C.3     
  27 C27           -4.4854     1.3106     0.3532 C.2     
  28 O28           -5.3513     0.4613     0.4305 O.2     
  29 O29           -4.8173     2.6165     0.3867 O.3     
  30 H30           -3.4647    -1.1862     0.2554 H       
  31 H31           -0.0541    -2.3173     0.3812 H       
  32 H32           -1.7585    -2.7338     0.6810 H       
  33 H33            0.5971     2.9246     0.9188 H       
  34 H34            1.5719     1.6904    -1.6891 H       
  35 H35            2.5136     2.6581    -0.5243 H       
  36 H36            3.0238     0.3077    -0.1149 H       
  37 H37            1.9957     0.8785     1.2252 H       
  38 H38            1.1146    -1.2519     0.4720 H       
  39 H39            1.1338    -0.7162    -1.2219 H       
  40 H40            0.8805    -2.4519    -1.8043 H       
  41 H41            0.6898    -3.2911    -4.1090 H       
  42 H42           -3.5137    -3.8829    -3.5286 H       
  43 H43           -3.3038    -3.0464    -1.2244 H       
  44 H44            0.0883     3.3725    -1.9265 H       
  45 H45           -3.6606    -4.5008    -5.2217 H       
  46 H46           -3.8514    -5.3389    -7.5268 H       
  47 H47           -1.8583    -5.4634    -8.9637 H       
  48 H48            0.3341    -4.7509    -8.1044 H       
  49 H49            0.5418    -3.9029    -5.8042 H       
  50 H50            0.4146     5.1437     0.4070 H       
  51 H51            1.7084     4.7505    -0.7504 H       
  52 H52            0.2774     5.6606    -1.2908 H       
  53 H53           -5.7568     2.8285     0.4734 H       
@<TRIPOS>BOND
   1    1    2 2
   2    1   10 1
   3    1    6 1
   4    2    3 1
   5    2   13 1
   6    3    4 1
   7    3    8 1
   8    4    5 2
   9    4   30 1
  10    5    6 1
  11    5   27 1
  12    6    7 2
  13    8    9 1
  14    8   31 1
  15    8   32 1
  16    9   14 ar
  17    9   18 ar
  18   10   11 1
  19   10   19 1
  20   10   33 1
  21   11   12 1
  22   11   34 1
  23   11   35 1
  24   12   13 1
  25   12   36 1
  26   12   37 1
  27   13   38 1
  28   13   39 1
  29   14   15 ar
  30   14   40 1
  31   15   16 ar
  32   15   41 1
  33   16   17 ar
  34   16   20 1
  35   17   18 ar
  36   17   42 1
  37   18   43 1
  38   19   26 1
  39   19   44 1
  40   20   21 ar
  41   20   25 ar
  42   21   22 ar
  43   21   45 1
  44   22   23 ar
  45   22   46 1
  46   23   24 ar
  47   23   47 1
  48   24   25 ar
  49   24   48 1
  50   25   49 1
  51   26   50 1
  52   26   51 1
  53   26   52 1
  54   27   28 2
  55   27   29 1
  56   29   53 1

#	End of record

