#	Name: ASD01410953
#	Creating user name:	WinNT
#	Creation time:	15. 06. 2019 19:19

#	Modifying user name:	WinNT
#	Modification time:	15. 06. 2019 19:19

#	Program:	/corina/corina34_cracker 3.40 0067  02.08.2006

@<TRIPOS>MOLECULE
ASD01410953
  64   67    0    0    0
SMALL
NO_CHARGES


@<TRIPOS>ATOM
   1 C1            -1.4918     3.0795     0.4023 C.ar    
   2 C2            -1.3377     0.7256    -0.0570 C.ar    
   3 C3            -2.7150     0.6619    -0.2184 C.ar    
   4 C4            -3.4900     1.8208    -0.0567 C.ar    
   5 C5            -2.8655     3.0322     0.2501 C.ar    
   6 O6            -0.8840     4.2572     0.7064 O.3     
   7 C7            -0.1045     4.8351    -0.2418 C.ar    
   8 N8            -3.3269    -0.5503    -0.5299 N.am    
   9 C9            -3.7074    -1.3862     0.4565 C.2     
  10 C10           -3.6308    -0.9491     1.8659 C.ar    
  11 O11           -4.1135    -2.4998     0.1866 O.2     
  12 C12           -4.1698    -1.7466     2.8773 C.ar    
  13 C13           -2.9455     0.6625     3.5095 C.ar    
  14 C14           -3.4865    -0.1304     4.5076 C.ar    
  15 C15           -4.0948    -1.3334     4.1909 C.ar    
  16 Br16          -3.3874     0.4284     6.3115 Br      
  17 N17           -0.0503     4.3098    -1.4549 N.ar    
  18 C18           -3.5569    -0.9164    -1.9297 C.3     
  19 C19           -4.2976     0.2192    -2.6387 C.3     
  20 C20            0.6246     5.9758     0.0687 C.ar    
  21 C21            1.4157     6.5559    -0.9079 C.ar    
  22 C22            1.4492     5.9713    -2.1662 C.ar    
  23 C23            0.6942     4.8401    -2.4061 C.ar    
  24 C24           -3.0142     0.2603     2.1922 C.ar    
  25 C25            2.2958     6.5682    -3.2609 C.3     
  26 C26           -2.2135    -1.1587    -2.6207 C.3     
  27 O27           -1.5763    -2.2970    -2.0374 O.3     
  28 C28           -0.3072    -2.6117    -2.6139 C.3     
  29 C29           -0.7310     1.9263     0.2511 C.ar    
  30 N30            3.6345     5.9745    -3.2215 N.pl3   
  31 N31            3.9837     4.9164    -3.8637 N.2     
  32 C32            5.2466     4.6636    -3.6047 C.2     
  33 C33            5.6669     5.6693    -2.7313 C.2     
  34 N34            4.6221     6.4436    -2.5445 N.2     
  35 C35            0.5550     6.5741     1.4500 C.3     
  36 F36            1.3724     7.7080     1.5088 F       
  37 F37           -0.7659     6.9361     1.7354 F       
  38 F38            0.9939     5.6337     2.3882 F       
  39 C39           -4.9529     1.7634    -0.2259 C.2     
  40 O40           -5.5110     0.6889    -0.3281 O.2     
  41 O41           -5.6716     2.9026    -0.2674 O.3     
  42 H42           -0.7389    -0.1646    -0.1809 H       
  43 H43           -3.4544     3.9298     0.3684 H       
  44 H44           -4.6447    -2.6849     2.6315 H       
  45 H45           -2.4727     1.5999     3.7628 H       
  46 H46           -4.5116    -1.9492     4.9741 H       
  47 H47           -4.1572    -1.8250    -1.9737 H       
  48 H48           -3.7137     1.1365    -2.5637 H       
  49 H49           -4.4370    -0.0379    -3.6888 H       
  50 H50           -5.2698     0.3679    -2.1689 H       
  51 H51            1.9933     7.4434    -0.6956 H       
  52 H52            0.7171     4.3812    -3.3835 H       
  53 H53           -2.5915     0.8793     1.4147 H       
  54 H54            1.8361     6.3640    -4.2279 H       
  55 H55            2.3717     7.6457    -3.1149 H       
  56 H56           -2.3786    -1.3393    -3.6829 H       
  57 H57           -1.5773    -0.2825    -2.4958 H       
  58 H58            0.1108    -3.4870    -2.1167 H       
  59 H59           -0.4328    -2.8225    -3.6759 H       
  60 H60            0.3685    -1.7656    -2.4889 H       
  61 H61            0.3409     1.9700     0.3752 H       
  62 H62            5.8384     3.8456    -3.9882 H       
  63 H63            6.6504     5.7886    -2.3012 H       
  64 H64           -6.6280     2.8145    -0.3798 H       
@<TRIPOS>BOND
   1    1   29 ar
   2    1    6 1
   3    1    5 ar
   4    2    3 ar
   5    2   29 ar
   6    2   42 1
   7    3    4 ar
   8    3    8 1
   9    4    5 ar
  10    4   39 1
  11    5   43 1
  12    6    7 1
  13    7   20 ar
  14    7   17 ar
  15    8    9 am
  16    8   18 1
  17    9   10 1
  18    9   11 2
  19   10   12 ar
  20   10   24 ar
  21   12   15 ar
  22   12   44 1
  23   13   14 ar
  24   13   24 ar
  25   13   45 1
  26   14   15 ar
  27   14   16 1
  28   15   46 1
  29   17   23 ar
  30   18   19 1
  31   18   26 1
  32   18   47 1
  33   19   48 1
  34   19   49 1
  35   19   50 1
  36   20   21 ar
  37   20   35 1
  38   21   22 ar
  39   21   51 1
  40   22   23 ar
  41   22   25 1
  42   23   52 1
  43   24   53 1
  44   25   30 1
  45   25   54 1
  46   25   55 1
  47   26   27 1
  48   26   56 1
  49   26   57 1
  50   27   28 1
  51   28   58 1
  52   28   59 1
  53   28   60 1
  54   29   61 1
  55   30   31 1
  56   30   34 1
  57   31   32 2
  58   32   33 1
  59   32   62 1
  60   33   34 2
  61   33   63 1
  62   35   36 1
  63   35   37 1
  64   35   38 1
  65   39   40 2
  66   39   41 1
  67   41   64 1

#	End of record

