#	Name: ASD01884611
#	Creating user name:	WinNT
#	Creation time:	15. 06. 2019 19:48

#	Modifying user name:	WinNT
#	Modification time:	15. 06. 2019 19:48

#	Program:	/corina/corina34_cracker 3.40 0067  02.08.2006

@<TRIPOS>MOLECULE
ASD01884611
  39   41    0    0    0
SMALL
NO_CHARGES


@<TRIPOS>ATOM
   1 C1            -0.0164     1.3575     0.0095 C.2     
   2 C2             0.0021    -0.0041     0.0020 C.2     
   3 C3             1.2441    -0.6750    -0.0134 C.2     
   4 C4             2.4025     0.0467    -0.0206 C.2     
   5 N5             2.3701     1.4021    -0.0126 N.am    
   6 C6             1.1988     2.0651     0.0017 C.2     
   7 O7             1.1914     3.2854     0.0083 O.2     
   8 C8             3.6267     2.1552    -0.0196 C.3     
   9 C9             1.2900    -2.1582    -0.0214 C.ar    
  10 C10            4.0449     2.4215    -1.4427 C.ar    
  11 C11            3.6210     3.5706    -2.0832 C.ar    
  12 C12            4.0029     3.8169    -3.3890 C.ar    
  13 C13            4.8107     2.9128    -4.0558 C.ar    
  14 C14            5.2364     1.7600    -3.4129 C.ar    
  15 C15            4.8567     1.5189    -2.1043 C.ar    
  16 F16            5.1839     3.1525    -5.3319 F       
  17 C17            1.8314    -2.8463     1.0627 C.ar    
  18 C18            1.8726    -4.2264     1.0532 C.ar    
  19 C19            1.3778    -4.9288    -0.0293 C.ar    
  20 C20            0.8371    -4.2508    -1.1135 C.ar    
  21 C21            0.7867    -2.8667    -1.1098 C.ar    
  22 F22            6.0249     0.8756    -4.0621 F       
  23 O23            0.3525    -4.9454    -2.1763 O.3     
  24 C24            0.4317    -6.3707    -2.1104 C.3     
  25 H25           -0.9563     1.8894     0.0168 H       
  26 H26           -0.9217    -0.5636     0.0082 H       
  27 H27            3.3529    -0.4662    -0.0325 H       
  28 H28            3.4856     3.1024     0.5010 H       
  29 H29            4.4004     1.5756     0.4840 H       
  30 H30            2.9904     4.2766    -1.5633 H       
  31 H31            3.6704     4.7148    -3.8886 H       
  32 H32            5.1878     0.6217    -1.6025 H       
  33 H33            2.2192    -2.3002     1.9099 H       
  34 H34            2.2928    -4.7584     1.8939 H       
  35 H35            1.4122    -6.0083    -0.0321 H       
  36 H36            0.3663    -2.3379    -1.9524 H       
  37 H37            0.0115    -6.8004    -3.0198 H       
  38 H38            1.4746    -6.6726    -2.0141 H       
  39 H39           -0.1307    -6.7263    -1.2471 H       
@<TRIPOS>BOND
   1    1    2 2
   2    1    6 1
   3    1   25 1
   4    2    3 1
   5    2   26 1
   6    3    4 2
   7    3    9 1
   8    4    5 1
   9    4   27 1
  10    5    6 am
  11    5    8 1
  12    6    7 2
  13    8   10 1
  14    8   28 1
  15    8   29 1
  16    9   17 ar
  17    9   21 ar
  18   10   11 ar
  19   10   15 ar
  20   11   12 ar
  21   11   30 1
  22   12   13 ar
  23   12   31 1
  24   13   14 ar
  25   13   16 1
  26   14   15 ar
  27   14   22 1
  28   15   32 1
  29   17   18 ar
  30   17   33 1
  31   18   19 ar
  32   18   34 1
  33   19   20 ar
  34   19   35 1
  35   20   21 ar
  36   20   23 1
  37   21   36 1
  38   23   24 1
  39   24   37 1
  40   24   38 1
  41   24   39 1

#	End of record

