#	Name: ASD01881544
#	Creating user name:	WinNT
#	Creation time:	15. 06. 2019 19:42

#	Modifying user name:	WinNT
#	Modification time:	15. 06. 2019 19:42

#	Program:	/corina/corina34_cracker 3.40 0067  02.08.2006

@<TRIPOS>MOLECULE
ASD01881544
  43   47    0    0    0
SMALL
NO_CHARGES


@<TRIPOS>ATOM
   1 C1            -0.0169     1.3954     0.0097 C.ar    
   2 C2             0.0021    -0.0041     0.0020 C.ar    
   3 C3            -1.1638    -0.7121     0.0093 C.ar    
   4 C4            -2.3860    -0.0457     0.0246 C.ar    
   5 C5            -2.4246     1.3597     0.0330 C.ar    
   6 C6            -1.2228     2.0788     0.0307 C.ar    
   7 N7            -3.6960    -0.4626     0.0345 N.pl3   
   8 N8            -4.4858     0.6962     0.0485 N.2     
   9 N9            -3.7254     1.7339     0.0473 N.2     
  10 C10           -4.1738    -1.8474     0.0303 C.3     
  11 C11            1.2600     2.1512     0.0016 C.ar    
  12 Br12          -1.2452     3.9696     0.0425 Br      
  13 C13            2.2640     1.8368     0.9119 C.ar    
  14 C14            3.4590     2.5448     0.9039 C.ar    
  15 C15            3.6477     3.5673    -0.0116 C.ar    
  16 C16            4.9286     4.3625    -0.0465 C.3     
  17 C17            6.0295     3.5996     0.6942 C.3     
  18 C18            5.4699     3.1382     2.0460 C.3     
  19 O19            4.4189     2.2024     1.8024 O.3     
  20 O20            5.3237     4.5683    -1.4043 O.3     
  21 C21           -4.3264    -2.3386     1.4713 C.3     
  22 C22           -4.9287    -3.7290     1.6837 C.3     
  23 C23           -3.4349    -3.4981     1.9205 C.3     
  24 C24            1.4613     3.1754    -0.9216 C.ar    
  25 C25            2.6477     3.8786    -0.9191 C.ar    
  26 H26            0.9468    -0.5273    -0.0102 H       
  27 H27           -1.1387    -1.7917     0.0029 H       
  28 H28           -5.1385    -1.8974    -0.4746 H       
  29 H29           -3.4560    -2.4779    -0.4944 H       
  30 H30            2.1138     1.0409     1.6263 H       
  31 H31            4.7696     5.3276     0.4345 H       
  32 H32            6.3344     2.7329     0.1076 H       
  33 H33            6.8858     4.2545     0.8553 H       
  34 H34            6.2594     2.6608     2.6265 H       
  35 H35            5.0785     3.9957     2.5933 H       
  36 H36            4.6739     5.0499    -1.9343 H       
  37 H37           -4.5622    -1.5702     2.2074 H       
  38 H38           -5.5605    -3.8753     2.5598 H       
  39 H39           -5.2163    -4.2937     0.7968 H       
  40 H40           -2.7397    -3.9109     1.1895 H       
  41 H41           -3.0839    -3.4925     2.9525 H       
  42 H42            0.6882     3.4209    -1.6346 H       
  43 H43            2.8018     4.6723    -1.6351 H       
@<TRIPOS>BOND
   1    1    2 ar
   2    1   11 1
   3    1    6 ar
   4    2    3 ar
   5    2   26 1
   6    3    4 ar
   7    3   27 1
   8    4    5 ar
   9    4    7 1
  10    5    6 ar
  11    5    9 1
  12    6   12 1
  13    7    8 1
  14    7   10 1
  15    8    9 2
  16   10   21 1
  17   10   28 1
  18   10   29 1
  19   11   13 ar
  20   11   24 ar
  21   13   14 ar
  22   13   30 1
  23   14   15 ar
  24   14   19 1
  25   15   16 1
  26   15   25 ar
  27   16   17 1
  28   16   20 1
  29   16   31 1
  30   17   18 1
  31   17   32 1
  32   17   33 1
  33   18   19 1
  34   18   34 1
  35   18   35 1
  36   20   36 1
  37   21   22 1
  38   21   23 1
  39   21   37 1
  40   22   23 1
  41   22   38 1
  42   22   39 1
  43   23   40 1
  44   23   41 1
  45   24   25 ar
  46   24   42 1
  47   25   43 1

#	End of record

