#	Name: ASD00431376
#	Creating user name:	WinNT
#	Creation time:	15. 06. 2019 18:35

#	Modifying user name:	WinNT
#	Modification time:	15. 06. 2019 18:35

#	Program:	/corina/corina34_cracker 3.40 0067  02.08.2006

@<TRIPOS>MOLECULE
ASD00431376
  39   41    0    0    0
SMALL
NO_CHARGES


@<TRIPOS>ATOM
   1 C1            -0.3769     1.6967    -0.6391 C.2     
   2 C2            -0.5784     0.2437    -0.9843 C.3     
   3 O3             0.7293     2.1047    -0.3547 O.2     
   4 N4            -1.4250     2.5440    -0.6518 N.am    
   5 C5            -1.2291     3.9565    -0.3163 C.3     
   6 C6            -0.7843     4.7205    -1.5650 C.3     
   7 O7            -3.7527     4.2899    -0.2845 O.3     
   8 N8            -4.6028     4.8977     0.3236 N.2     
   9 C9            -4.0767     5.6271     1.2801 C.2     
  10 C10           -2.6704     5.4042     1.2176 C.2     
  11 C11           -2.5238     4.5361     0.1926 C.2     
  12 S12           -4.0642     7.4718     3.5038 S.3     
  13 C13           -5.6065     8.0436     3.9692 C.2     
  14 N14           -6.5255     7.5265     3.2131 N.2     
  15 C15           -6.1307     6.6977     2.2717 C.2     
  16 C16           -4.7962     6.5013     2.2284 C.2     
  17 O17           -5.8364     8.9122     4.9824 O.3     
  18 C18           -7.1278     9.1923     5.3025 C.ar    
  19 C19           -7.8804     8.2722     6.0178 C.ar    
  20 C20           -9.1922     8.5569     6.3429 C.ar    
  21 C21           -9.7572     9.7625     5.9541 C.ar    
  22 C22           -9.0048    10.6825     5.2388 C.ar    
  23 C23           -7.6912    10.4005     4.9187 C.ar    
  24 O24          -11.0488    10.0425     6.2737 O.3     
  25 H25            0.3760    -0.2795    -0.9252 H       
  26 H26           -1.2816    -0.2027    -0.2813 H       
  27 H27           -0.9753     0.1623    -1.9963 H       
  28 H28           -2.3090     2.2185    -0.8832 H       
  29 H29           -0.4639     4.0440     0.4550 H       
  30 H30           -1.5495     4.6330    -2.3363 H       
  31 H31           -0.6385     5.7714    -1.3153 H       
  32 H32            0.1522     4.3012    -1.9331 H       
  33 H33           -1.9006     5.8302     1.8440 H       
  34 H34           -6.8162     6.2151     1.5908 H       
  35 H35           -7.4406     7.3333     6.3202 H       
  36 H36           -9.7782     7.8405     6.8994 H       
  37 H37           -9.4449    11.6211     4.9359 H       
  38 H38           -7.1040    11.1187     4.3656 H       
  39 H39          -11.1552    10.4927     7.1229 H       
@<TRIPOS>BOND
   1    1    2 1
   2    1    3 2
   3    1    4 am
   4    2   25 1
   5    2   26 1
   6    2   27 1
   7    4    5 1
   8    4   28 1
   9    5    6 1
  10    5   11 1
  11    5   29 1
  12    6   30 1
  13    6   31 1
  14    6   32 1
  15    7    8 1
  16    7   11 1
  17    8    9 2
  18    9   10 1
  19    9   16 1
  20   10   11 2
  21   10   33 1
  22   12   13 1
  23   12   16 1
  24   13   14 2
  25   13   17 1
  26   14   15 1
  27   15   16 2
  28   15   34 1
  29   17   18 1
  30   18   19 ar
  31   18   23 ar
  32   19   20 ar
  33   19   35 1
  34   20   21 ar
  35   20   36 1
  36   21   22 ar
  37   21   24 1
  38   22   23 ar
  39   22   37 1
  40   23   38 1
  41   24   39 1

#	End of record

