#	Name: ASD01890444
#	Creating user name:	WinNT
#	Creation time:	15. 06. 2019 19:51

#	Modifying user name:	WinNT
#	Modification time:	15. 06. 2019 19:51

#	Program:	/corina/corina34_cracker 3.40 0067  02.08.2006

@<TRIPOS>MOLECULE
ASD01890444
  45   46    0    0    0
SMALL
NO_CHARGES


@<TRIPOS>ATOM
   1 C1             0.0437     1.6083     0.2258 C.2     
   2 C2             0.0612     0.1083     0.0823 C.3     
   3 C3             1.4858    -0.3683    -0.0376 C.2     
   4 O4             0.9030     2.1638     0.8684 O.2     
   5 O5            -0.9234     2.3278    -0.3649 O.3     
   6 O6             1.9357    -1.1388     0.7771 O.2     
   7 O7             2.2550     0.0633    -1.0495 O.3     
   8 C8            -0.5881    -0.5293     1.3123 C.3     
   9 C9            -1.9851     0.0607     1.5151 C.3     
  10 C10           -2.5663    -0.4566     2.8057 C.2     
  11 C11           -0.6966    -2.0185     1.1079 C.ar    
  12 C12           -0.0648    -2.8838     1.9813 C.ar    
  13 C13           -0.1643    -4.2498     1.7939 C.ar    
  14 C14           -0.8959    -4.7504     0.7332 C.ar    
  15 C15           -1.5284    -3.8850    -0.1398 C.ar    
  16 C16           -1.4325    -2.5192     0.0502 C.ar    
  17 O17           -1.9264    -1.2218     3.4951 O.2     
  18 C18           -3.9103    -0.0333     3.2291 C.ar    
  19 C19           -4.4531    -0.5114     4.4263 C.ar    
  20 C20           -5.7130    -0.1103     4.8164 C.ar    
  21 C21           -6.4408     0.7637     4.0262 C.ar    
  22 C22           -5.9102     1.2409     2.8394 C.ar    
  23 C23           -4.6492     0.8537     2.4392 C.ar    
  24 I24           -8.3545     1.3664     4.6291 I       
  25 C25           -0.8775     3.7678    -0.1840 C.3     
  26 C26            3.6169    -0.4373    -1.1022 C.3     
  27 H27           -0.4940    -0.1778    -0.8110 H       
  28 H28            0.0231    -0.3269     2.1918 H       
  29 H29           -1.9177     1.1478     1.5570 H       
  30 H30           -2.6272    -0.2318     0.6844 H       
  31 H31            0.5067    -2.4927     2.8100 H       
  32 H32            0.3298    -4.9259     2.4759 H       
  33 H33           -0.9731    -5.8176     0.5863 H       
  34 H34           -2.0997    -4.2761    -0.9687 H       
  35 H35           -1.9297    -1.8431    -0.6296 H       
  36 H36           -3.8868    -1.1933     5.0433 H       
  37 H37           -6.1336    -0.4789     5.7403 H       
  38 H38           -6.4838     1.9219     2.2283 H       
  39 H39           -4.2345     1.2307     1.5160 H       
  40 H40           -0.9449     4.0029     0.8782 H       
  41 H41            0.0603     4.1544    -0.5829 H       
  42 H42           -1.7136     4.2270    -0.7115 H       
  43 H43            4.1441    -0.1528    -0.1916 H       
  44 H44            3.6016    -1.5238    -1.1887 H       
  45 H45            4.1275    -0.0112    -1.9659 H       
@<TRIPOS>BOND
   1    1    2 1
   2    1    4 2
   3    1    5 1
   4    2    3 1
   5    2    8 1
   6    2   27 1
   7    3    6 2
   8    3    7 1
   9    5   25 1
  10    7   26 1
  11    8    9 1
  12    8   11 1
  13    8   28 1
  14    9   10 1
  15    9   29 1
  16    9   30 1
  17   10   17 2
  18   10   18 1
  19   11   12 ar
  20   11   16 ar
  21   12   13 ar
  22   12   31 1
  23   13   14 ar
  24   13   32 1
  25   14   15 ar
  26   14   33 1
  27   15   16 ar
  28   15   34 1
  29   16   35 1
  30   18   19 ar
  31   18   23 ar
  32   19   20 ar
  33   19   36 1
  34   20   21 ar
  35   20   37 1
  36   21   22 ar
  37   21   24 1
  38   22   23 ar
  39   22   38 1
  40   23   39 1
  41   25   40 1
  42   25   41 1
  43   25   42 1
  44   26   43 1
  45   26   44 1
  46   26   45 1

#	End of record

