#	Name: ASD03180100
#	Creating user name:	WinNT
#	Creation time:	15. 06. 2019 20:33

#	Modifying user name:	WinNT
#	Modification time:	15. 06. 2019 20:33

#	Program:	/corina/corina34_cracker 3.40 0067  02.08.2006

@<TRIPOS>MOLECULE
ASD03180100
  45   48    0    0    0
SMALL
NO_CHARGES


@<TRIPOS>ATOM
   1 N1            -0.0169     1.3933     0.0097 N.pl3   
   2 C2            -0.0157    -0.0037    -0.0285 C.ar    
   3 C3             0.9524    -2.0598    -0.7943 C.ar    
   4 C4            -0.0140    -2.7697    -0.1050 C.ar    
   5 C5            -0.9841    -2.1002     0.6179 C.ar    
   6 C6            -0.9879    -0.7196     0.6582 C.ar    
   7 C7             0.9545    -0.6795    -0.7583 C.ar    
   8 C8            -2.0454     0.0091     1.4468 C.3     
   9 C9            -3.1974     0.3974     0.5178 C.3     
  10 N10            1.3024     3.3770    -0.0862 N.2     
  11 C11            2.5344     3.8684    -0.0805 C.2     
  12 C12            1.1828     2.0880     0.0001 C.2     
  13 S13            2.7824     1.3585     0.1034 S.3     
  14 C14            3.5180     2.9573     0.0154 C.2     
  15 C15            2.8079     5.3234    -0.1739 C.ar    
  16 C16            3.3261     8.0393    -0.3489 C.ar    
  17 C17            2.0163     7.5884    -0.2483 C.ar    
  18 C18            1.7516     6.2345    -0.1608 C.ar    
  19 C19            4.1204     5.7815    -0.2692 C.ar    
  20 C20            4.3766     7.1362    -0.3563 C.ar    
  21 O21            0.9915     8.4899    -0.2421 O.3     
  22 O22            3.5723     9.3793    -0.4347 O.3     
  23 C23            0.7670     9.1891    -1.4679 C.3     
  24 C24            3.1483    10.0163    -1.6414 C.3     
  25 C25            1.6818    10.3992    -1.5737 C.3     
  26 H26           -0.8572     1.8770     0.0389 H       
  27 H27            1.7089    -2.5858    -1.3577 H       
  28 H28           -0.0136    -3.8493    -0.1351 H       
  29 H29           -1.7375    -2.6576     1.1547 H       
  30 H30            1.7092    -0.1257    -1.2970 H       
  31 H31           -2.4199    -0.6397     2.2385 H       
  32 H32           -1.6149     0.9085     1.8872 H       
  33 H33           -3.6278    -0.5019     0.0773 H       
  34 H34           -3.9622     0.9245     1.0881 H       
  35 H35           -2.8228     1.0462    -0.2740 H       
  36 H36            4.5769     3.1688     0.0351 H       
  37 H37            0.7330     5.8842    -0.0830 H       
  38 H38            4.9386     5.0765    -0.2746 H       
  39 H39            5.3939     7.4904    -0.4351 H       
  40 H40            0.9616     8.5180    -2.3045 H       
  41 H41           -0.2709     9.5194    -1.5077 H       
  42 H42            3.7484    10.9116    -1.8043 H       
  43 H43            3.2917     9.3322    -2.4777 H       
  44 H44            1.4185    10.9638    -2.4681 H       
  45 H45            1.5305    11.0337    -0.7004 H       
@<TRIPOS>BOND
   1    1    2 1
   2    1   12 1
   3    1   26 1
   4    2    7 ar
   5    2    6 ar
   6    3    4 ar
   7    3    7 ar
   8    3   27 1
   9    4    5 ar
  10    4   28 1
  11    5    6 ar
  12    5   29 1
  13    6    8 1
  14    7   30 1
  15    8    9 1
  16    8   31 1
  17    8   32 1
  18    9   33 1
  19    9   34 1
  20    9   35 1
  21   10   12 2
  22   10   11 1
  23   11   14 2
  24   11   15 1
  25   12   13 1
  26   13   14 1
  27   14   36 1
  28   15   19 ar
  29   15   18 ar
  30   16   17 ar
  31   16   20 ar
  32   16   22 1
  33   17   18 ar
  34   17   21 1
  35   18   37 1
  36   19   20 ar
  37   19   38 1
  38   20   39 1
  39   21   23 1
  40   22   24 1
  41   23   25 1
  42   23   40 1
  43   23   41 1
  44   24   25 1
  45   24   42 1
  46   24   43 1
  47   25   44 1
  48   25   45 1

#	End of record

