#	Name: ASD07300521
#	Creating user name:	WinNT
#	Creation time:	15. 06. 2019 21:09

#	Modifying user name:	WinNT
#	Modification time:	15. 06. 2019 21:09

#	Program:	/corina/corina34_cracker 3.40 0067  02.08.2006

@<TRIPOS>MOLECULE
ASD07300521
  33   36    0    0    0
SMALL
NO_CHARGES


@<TRIPOS>ATOM
   1 C1            -0.0158     1.3171     0.0093 C.2     
   2 N2             0.0021    -0.0041     0.0020 N.2     
   3 C3             1.2838    -0.4477    -0.0126 C.ar    
   4 C4             2.1123     0.6857    -0.0144 C.ar    
   5 N5             1.2630     1.7812    -0.0004 N.pl3   
   6 C6             1.8605    -1.7204    -0.0249 C.ar    
   7 C7             3.2316    -1.8495    -0.0387 C.ar    
   8 C8             4.0447    -0.7262    -0.0400 C.ar    
   9 C9             3.4904     0.5377    -0.0280 C.ar    
  10 N10           -0.9409     2.3454     0.0286 N.pl3   
  11 C11           -0.2344     3.6310     0.0248 C.3     
  12 C12            1.2557     3.2508     0.0079 C.3     
  13 C13           -2.3296     2.1847     0.0486 C.ar    
  14 C14           -2.8830     0.9107     0.0507 C.ar    
  15 C15           -4.2552     0.7556     0.0710 C.ar    
  16 C16           -5.0780     1.8669     0.0892 C.ar    
  17 C17           -4.5303     3.1367     0.0871 C.ar    
  18 C18           -3.1589     3.2988     0.0723 C.ar    
  19 N19           -6.5483     1.6968     0.1104 N.pl3   
  20 O20           -7.0321     0.5790     0.1118 O.2     
  21 O21           -7.2743     2.6747     0.1264 O.2     
  22 H22            1.2334    -2.5997    -0.0233 H       
  23 H23            3.6770    -2.8333    -0.0483 H       
  24 H24            5.1185    -0.8412    -0.0502 H       
  25 H25            4.1286     1.4090    -0.0298 H       
  26 H26           -0.4951     4.2058    -0.8639 H       
  27 H27           -0.4682     4.1963     0.9269 H       
  28 H28            1.7543     3.6283     0.9007 H       
  29 H29            1.7370     3.6384    -0.8900 H       
  30 H30           -2.2410     0.0424     0.0361 H       
  31 H31           -4.6861    -0.2347     0.0722 H       
  32 H32           -5.1757     4.0025     0.1014 H       
  33 H33           -2.7317     4.2908     0.0748 H       
@<TRIPOS>BOND
   1    1    2 2
   2    1    5 1
   3    1   10 1
   4    2    3 1
   5    3    4 ar
   6    3    6 ar
   7    4    5 1
   8    4    9 ar
   9    5   12 1
  10    6    7 ar
  11    6   22 1
  12    7    8 ar
  13    7   23 1
  14    8    9 ar
  15    8   24 1
  16    9   25 1
  17   10   11 1
  18   10   13 1
  19   11   12 1
  20   11   26 1
  21   11   27 1
  22   12   28 1
  23   12   29 1
  24   13   14 ar
  25   13   18 ar
  26   14   15 ar
  27   14   30 1
  28   15   16 ar
  29   15   31 1
  30   16   17 ar
  31   16   19 1
  32   17   18 ar
  33   17   32 1
  34   18   33 1
  35   19   20 2
  36   19   21 2

#	End of record

