#	Name: ASD05740089
#	Creating user name:	WinNT
#	Creation time:	15. 06. 2019 21:02

#	Modifying user name:	WinNT
#	Modification time:	15. 06. 2019 21:02

#	Program:	/corina/corina34_cracker 3.40 0067  02.08.2006

@<TRIPOS>MOLECULE
ASD05740089
  47   50    0    0    0
SMALL
NO_CHARGES


@<TRIPOS>ATOM
   1 C1            -0.1372     1.4791     0.0329 C.3     
   2 C2             0.7026     0.5201    -4.4817 C.ar    
   3 C3             0.0649    -0.7529     1.2078 C.2     
   4 C4             0.1357    -2.1360     1.1769 C.2     
   5 C5            -0.0590    -0.0256     0.0073 C.2     
   6 C6            -0.1083    -0.7048    -1.1893 C.2     
   7 C7            -0.0333    -2.1095    -1.1796 C.2     
   8 O8             0.0836    -2.7787    -0.0260 O.3     
   9 O9            -0.2281    -0.0274    -2.3637 O.3     
  10 C10            0.8209    -0.0563    -3.2265 C.ar    
  11 C11            2.0121    -0.6636    -2.8519 C.ar    
  12 O12           -0.0762    -2.7239    -2.2325 O.2     
  13 C13            1.7763     0.4883    -5.3609 C.ar    
  14 C14            2.9657    -0.1208    -4.9804 C.ar    
  15 C15            3.0796    -0.6941    -3.7284 C.ar    
  16 N16            1.6610     1.0675    -6.6267 N.am    
  17 S17            2.2148     0.2582    -7.9611 S.o2    
  18 O18            1.9248     1.0843    -9.0804 O.2     
  19 O19            3.5258    -0.1888    -7.6439 O.2     
  20 C20            0.2557    -2.7016     2.4426 C.2     
  21 C21            0.2830    -1.8399     3.4653 C.2     
  22 S22            0.1609    -0.1914     2.8738 S.3     
  23 O23            0.3944    -2.1891     4.7707 O.3     
  24 C24            0.4079    -1.1989     5.6951 C.ar    
  25 N25            0.5157    -1.5130     6.9761 N.ar    
  26 N26            0.3185     0.0592     5.2946 N.ar    
  27 C27            0.3287     1.0504     6.1706 C.ar    
  28 C28            0.4347     0.7575     7.5212 C.ar    
  29 C29            0.5321    -0.5709     7.9046 C.ar    
  30 N30            1.2852    -1.1018    -8.1304 N.am    
  31 C31           -0.1435    -0.9798    -8.4307 C.3     
  32 H32            0.8701     1.8950     0.0553 H       
  33 H33           -0.6559     1.8312    -0.8588 H       
  34 H34           -0.6824     1.7996     0.9206 H       
  35 H35           -0.2246     0.9889    -4.7765 H       
  36 H36            2.1044    -1.1123    -1.8739 H       
  37 H37            3.8016    -0.1464    -5.6637 H       
  38 H38            4.0049    -1.1671    -3.4345 H       
  39 H39            1.2566     1.9438    -6.7240 H       
  40 H40            0.3222    -3.7694     2.5900 H       
  41 H41            0.2557     2.0752     5.8376 H       
  42 H42            0.4455     1.5470     8.2581 H       
  43 H43            0.6158    -0.8338     8.9488 H       
  44 H44            1.6867    -1.9792    -8.0306 H       
  45 H45           -0.5853    -1.9735    -8.5048 H       
  46 H46           -0.6358    -0.4218    -7.6343 H       
  47 H47           -0.2723    -0.4534    -9.3764 H       
@<TRIPOS>BOND
   1    1    5 1
   2    1   32 1
   3    1   33 1
   4    1   34 1
   5    2   10 ar
   6    2   13 ar
   7    2   35 1
   8    3    4 2
   9    3    5 1
  10    3   22 1
  11    4   20 1
  12    4    8 1
  13    5    6 2
  14    6    7 1
  15    6    9 1
  16    7    8 1
  17    7   12 2
  18    9   10 1
  19   10   11 ar
  20   11   15 ar
  21   11   36 1
  22   13   14 ar
  23   13   16 1
  24   14   15 ar
  25   14   37 1
  26   15   38 1
  27   16   17 am
  28   16   39 1
  29   17   18 2
  30   17   19 2
  31   17   30 am
  32   20   21 2
  33   20   40 1
  34   21   22 1
  35   21   23 1
  36   23   24 1
  37   24   25 ar
  38   24   26 ar
  39   25   29 ar
  40   26   27 ar
  41   27   28 ar
  42   27   41 1
  43   28   29 ar
  44   28   42 1
  45   29   43 1
  46   30   31 1
  47   30   44 1
  48   31   45 1
  49   31   46 1
  50   31   47 1

#	End of record

