#	Name: ASD01100046
#	Creating user name:	WinNT
#	Creation time:	15. 06. 2019 18:58

#	Modifying user name:	WinNT
#	Modification time:	15. 06. 2019 18:58

#	Program:	/corina/corina34_cracker 3.40 0067  02.08.2006

@<TRIPOS>MOLECULE
ASD01100046
  34   35    0    0    0
SMALL
NO_CHARGES


@<TRIPOS>ATOM
   1 C1             0.1624     1.2947    -0.9232 C.ar    
   2 C2             0.2403    -0.0848    -0.9934 C.ar    
   3 C3             1.4412    -0.7231    -0.7396 C.ar    
   4 C4             2.5624     0.0176    -0.4160 C.ar    
   5 C5             2.4840     1.3960    -0.3460 C.ar    
   6 C6             1.2843     2.0344    -0.5995 C.ar    
   7 C7             3.7066     2.2030     0.0073 C.3     
   8 C8             3.4374     3.0050     1.2821 C.3     
   9 C9             3.2217     2.0443     2.4532 C.3     
  10 C10            4.6356     3.9092     1.5784 C.3     
  11 Cl11          -1.1684    -1.0145    -1.3994 Cl      
  12 C12            4.0286     3.1476    -1.1219 C.2     
  13 N13            5.1810     3.8463    -1.1081 N.am    
  14 O14            3.2507     3.2790    -2.0431 O.2     
  15 C15            5.4416     4.7778    -2.1078 C.2     
  16 N16            6.5122     5.5058    -2.1973 N.2     
  17 C17            6.5868     6.3387    -3.2185 C.2     
  18 C18            5.5411     6.3341    -4.0480 C.2     
  19 S19            4.3745     5.1518    -3.4585 S.3     
  20 F20            5.4028     7.1003    -5.1521 F       
  21 H21           -0.7737     1.7938    -1.1256 H       
  22 H22            1.5026    -1.8000    -0.7940 H       
  23 H23            3.4998    -0.4806    -0.2175 H       
  24 H24            1.2236     3.1113    -0.5446 H       
  25 H25            4.5499     1.5321     0.1715 H       
  26 H26            2.5457     3.6168     1.1450 H       
  27 H27            4.1134     1.4326     2.5903 H       
  28 H28            3.0299     2.6157     3.3614 H       
  29 H29            2.3681     1.4001     2.2421 H       
  30 H30            5.5044     3.2951     1.8154 H       
  31 H31            4.8523     4.5233     0.7043 H       
  32 H32            4.4037     4.5534     2.4265 H       
  33 H33            5.8287     3.6997    -0.4010 H       
  34 H34            7.4396     6.9832    -3.3729 H       
@<TRIPOS>BOND
   1    1    2 ar
   2    1    6 ar
   3    1   21 1
   4    2    3 ar
   5    2   11 1
   6    3    4 ar
   7    3   22 1
   8    4    5 ar
   9    4   23 1
  10    5    6 ar
  11    5    7 1
  12    6   24 1
  13    7    8 1
  14    7   12 1
  15    7   25 1
  16    8    9 1
  17    8   10 1
  18    8   26 1
  19    9   27 1
  20    9   28 1
  21    9   29 1
  22   10   30 1
  23   10   31 1
  24   10   32 1
  25   12   13 am
  26   12   14 2
  27   13   15 1
  28   13   33 1
  29   15   16 2
  30   15   19 1
  31   16   17 1
  32   17   18 2
  33   17   34 1
  34   18   19 1
  35   18   20 1

#	End of record

