#	Name: ASD07930330
#	Creating user name:	WinNT
#	Creation time:	15. 06. 2019 21:12

#	Modifying user name:	WinNT
#	Modification time:	15. 06. 2019 21:12

#	Program:	/corina/corina34_cracker 3.40 0067  02.08.2006

@<TRIPOS>MOLECULE
ASD07930330
  37   38    0    0    0
SMALL
NO_CHARGES


@<TRIPOS>ATOM
   1 N1             0.0945     1.3352     0.0637 N.pl3   
   2 C2             0.0382    -0.1220    -0.0923 C.3     
   3 C3             0.8633    -0.7823     1.0210 C.3     
   4 N4             2.3029     1.5285     0.9009 N.am    
   5 C5             1.3129     1.9827     0.0411 C.2     
   6 C6            -1.3934    -0.5832     0.0013 C.ar    
   7 C7            -2.1205    -0.3551     1.1576 C.ar    
   8 N8             1.5266     2.9877    -0.7609 N.2     
   9 C9             3.0867     2.4508     1.7262 C.3     
  10 C10            0.6138    -0.5126    -1.4550 C.3     
  11 C11           -1.9828    -1.2288    -1.0688 C.ar    
  12 C12           -3.2965    -1.6517    -0.9834 C.ar    
  13 C13           -4.0216    -1.4292     0.1721 C.ar    
  14 C14           -3.4357    -0.7790     1.2419 C.ar    
  15 F15           -1.5466     0.2802     2.2027 F       
  16 C16           -5.4533    -1.8907     0.2636 C.3     
  17 N17           -3.9269    -2.3427    -2.1305 N.pl3   
  18 O18           -4.7075    -3.2573    -1.9363 O.2     
  19 O19           -3.6650    -1.9968    -3.2686 O.2     
  20 S20            2.5566    -0.1177     0.9478 S.o2    
  21 O21            3.2389    -0.3395     2.1744 O.2     
  22 O22            3.1641    -0.4215    -0.3004 O.2     
  23 H23           -0.7237     1.8435     0.1786 H       
  24 H24            0.4207    -0.5546     1.9907 H       
  25 H25            0.8854    -1.8617     0.8709 H       
  26 H26            2.3891     3.4314    -0.7633 H       
  27 H27            2.7587     3.4735     1.5398 H       
  28 H28            2.9417     2.2090     2.7791 H       
  29 H29            4.1428     2.3563     1.4738 H       
  30 H30            1.6498    -0.1802    -1.5206 H       
  31 H31            0.5717    -1.5956    -1.5703 H       
  32 H32            0.0300    -0.0401    -2.2449 H       
  33 H33           -1.4174    -1.4029    -1.9723 H       
  34 H34           -4.0023    -0.6056     2.1448 H       
  35 H35           -5.4788    -2.9387     0.5624 H       
  36 H36           -5.9824    -1.2892     1.0026 H       
  37 H37           -5.9341    -1.7782    -0.7082 H       
@<TRIPOS>BOND
   1    1    2 1
   2    1    5 1
   3    1   23 1
   4    2    3 1
   5    2    6 1
   6    2   10 1
   7    3   20 1
   8    3   24 1
   9    3   25 1
  10    4    5 1
  11    4    9 1
  12    4   20 am
  13    5    8 2
  14    6   11 ar
  15    6    7 ar
  16    7   15 1
  17    7   14 ar
  18    8   26 1
  19    9   27 1
  20    9   28 1
  21    9   29 1
  22   10   30 1
  23   10   31 1
  24   10   32 1
  25   11   12 ar
  26   11   33 1
  27   12   13 ar
  28   12   17 1
  29   13   14 ar
  30   13   16 1
  31   14   34 1
  32   16   35 1
  33   16   36 1
  34   16   37 1
  35   17   18 2
  36   17   19 2
  37   20   21 2
  38   20   22 2

#	End of record

