#	Name: ASD01883681
#	Creating user name:	WinNT
#	Creation time:	15. 06. 2019 19:46

#	Modifying user name:	WinNT
#	Modification time:	15. 06. 2019 19:46

#	Program:	/corina/corina34_cracker 3.40 0067  02.08.2006

@<TRIPOS>MOLECULE
ASD01883681
  43   46    0    0    0
SMALL
NO_CHARGES


@<TRIPOS>ATOM
   1 C1             0.0147     1.1638    -1.5519 C.2     
   2 C2             0.0352    -0.0656    -0.8776 C.2     
   3 C3            -1.1790    -0.6083    -0.4078 C.2     
   4 C4            -2.3458     0.0354    -0.5982 C.2     
   5 N5            -2.4116     1.2330    -1.2492 N.pl3   
   6 C6            -1.2761     1.8318    -1.7318 C.2     
   7 C7            -3.4590     2.0611    -1.5591 C.2     
   8 C8            -2.9466     3.1227    -2.2166 C.2     
   9 N9            -1.6219     2.9672    -2.3113 N.2     
  10 C10           -4.9109     1.8293    -1.2284 C.3     
  11 C11           -5.6069     1.1711    -2.4214 C.3     
  12 C12            1.3103    -0.7822    -0.6627 C.ar    
  13 C13            1.7977    -0.9709     0.6324 C.ar    
  14 C14            2.9864    -1.6393     0.8286 C.ar    
  15 C15            3.7004    -2.1249    -0.2601 C.ar    
  16 C16            3.2189    -1.9388    -1.5502 C.ar    
  17 C17            2.0276    -1.2773    -1.7540 C.ar    
  18 O18            4.8718    -2.7827    -0.0627 O.3     
  19 C19            6.0206    -2.0564    -0.0704 C.ar    
  20 C20            5.9672    -0.6734    -0.1670 C.ar    
  21 C21            7.1356     0.0634    -0.1746 C.ar    
  22 C22            8.3597    -0.5776    -0.0860 C.ar    
  23 C23            8.4147    -1.9578     0.0100 C.ar    
  24 C24            7.2477    -2.6969     0.0241 C.ar    
  25 F25           -4.9915    -0.0533    -2.7030 F       
  26 F26           -6.9547     0.9559    -2.1144 F       
  27 F27           -5.5109     2.0089    -3.5377 F       
  28 F28            9.5016     0.1443    -0.0936 F       
  29 C29            1.2231     1.7526    -2.0456 C.1     
  30 N30            2.1817     2.2196    -2.4373 N.1     
  31 H31           -1.1725    -1.5548     0.1123 H       
  32 H32           -3.2567    -0.4091    -0.2252 H       
  33 H33           -3.5118     3.9595    -2.5996 H       
  34 H34           -4.9857     1.1765    -0.3587 H       
  35 H35           -5.3903     2.7832    -1.0090 H       
  36 H36            1.2437    -0.5931     1.4790 H       
  37 H37            3.3639    -1.7856     1.8299 H       
  38 H38            3.7768    -2.3173    -2.3939 H       
  39 H39            1.6539    -1.1332    -2.7570 H       
  40 H40            5.0125    -0.1732    -0.2365 H       
  41 H41            7.0943     1.1399    -0.2502 H       
  42 H42            9.3702    -2.4565     0.0784 H       
  43 H43            7.2908    -3.7734     0.0994 H       
@<TRIPOS>BOND
   1    1    2 2
   2    1   29 1
   3    1    6 1
   4    2    3 1
   5    2   12 1
   6    3    4 2
   7    3   31 1
   8    4    5 1
   9    4   32 1
  10    5    6 1
  11    5    7 1
  12    6    9 2
  13    7    8 2
  14    7   10 1
  15    8    9 1
  16    8   33 1
  17   10   11 1
  18   10   34 1
  19   10   35 1
  20   11   25 1
  21   11   26 1
  22   11   27 1
  23   12   13 ar
  24   12   17 ar
  25   13   14 ar
  26   13   36 1
  27   14   15 ar
  28   14   37 1
  29   15   16 ar
  30   15   18 1
  31   16   17 ar
  32   16   38 1
  33   17   39 1
  34   18   19 1
  35   19   20 ar
  36   19   24 ar
  37   20   21 ar
  38   20   40 1
  39   21   22 ar
  40   21   41 1
  41   22   23 ar
  42   22   28 1
  43   23   24 ar
  44   23   42 1
  45   24   43 1
  46   29   30 3

#	End of record

