#	Name: ASD03081282
#	Creating user name:	WinNT
#	Creation time:	15. 06. 2019 20:27

#	Modifying user name:	WinNT
#	Modification time:	15. 06. 2019 20:27

#	Program:	/corina/corina34_cracker 3.40 0067  02.08.2006

@<TRIPOS>MOLECULE
ASD03081282
  27   29    0    0    0
SMALL
NO_CHARGES


@<TRIPOS>ATOM
   1 C1            -0.0168     1.3848     0.0097 C.ar    
   2 C2             0.0021    -0.0041     0.0020 C.ar    
   3 C3             1.2036    -0.6787    -0.0131 C.ar    
   4 C4             2.4036     0.0361    -0.0207 C.ar    
   5 C5             2.3801     1.4327    -0.0129 C.ar    
   6 C6             1.1743     2.0995     0.0021 C.ar    
   7 O7            -1.2033     2.0460     0.0188 O.3     
   8 O8             4.9198    -0.1216    -0.0449 O.3     
   9 C9             3.6934    -0.6826    -0.0363 C.2     
  10 N10            3.8572    -1.9865    -0.0444 N.2     
  11 N11            5.1145    -2.2590    -0.0575 N.2     
  12 C12            5.8034    -1.1408    -0.0583 C.2     
  13 C13            7.8862     0.2346    -0.0724 C.ar    
  14 C14            7.2759    -1.0211    -0.0722 C.ar    
  15 C15            8.0831    -2.1650    -0.0849 C.ar    
  16 C16            9.4568    -1.9982    -0.0972 C.ar    
  17 C17            9.9836    -0.7193    -0.0965 C.ar    
  18 N18            9.1985     0.3411    -0.0843 N.ar    
  19 H19           -0.9262    -0.5560     0.0083 H       
  20 H20            1.2173    -1.7586    -0.0186 H       
  21 H21            3.3057     1.9891    -0.0184 H       
  22 H22            1.1553     3.1793     0.0081 H       
  23 H23           -1.5426     2.2326     0.9049 H       
  24 H24            7.2767     1.1262    -0.0671 H       
  25 H25            7.6450    -3.1521    -0.0849 H       
  26 H26           10.1107    -2.8576    -0.1069 H       
  27 H27           11.0554    -0.5864    -0.1056 H       
@<TRIPOS>BOND
   1    1    2 ar
   2    1    6 ar
   3    1    7 1
   4    2    3 ar
   5    2   19 1
   6    3    4 ar
   7    3   20 1
   8    4    5 ar
   9    4    9 1
  10    5    6 ar
  11    5   21 1
  12    6   22 1
  13    7   23 1
  14    8    9 1
  15    8   12 1
  16    9   10 2
  17   10   11 1
  18   11   12 2
  19   12   14 1
  20   13   14 ar
  21   13   18 ar
  22   13   24 1
  23   14   15 ar
  24   15   16 ar
  25   15   25 1
  26   16   17 ar
  27   16   26 1
  28   17   18 ar
  29   17   27 1

#	End of record

