#	Name: ASD05490174
#	Creating user name:	WinNT
#	Creation time:	15. 06. 2019 21:01

#	Modifying user name:	WinNT
#	Modification time:	15. 06. 2019 21:01

#	Program:	/corina/corina34_cracker 3.40 0067  02.08.2006

@<TRIPOS>MOLECULE
ASD05490174
  60   64    0    0    0
SMALL
NO_CHARGES


@<TRIPOS>ATOM
   1 N1            -0.0159     1.3192     0.0093 N.ar    
   2 C2             0.0021    -0.0041     0.0020 C.ar    
   3 N3             1.1319    -0.6919    -0.0125 N.ar    
   4 C4             2.3044    -0.0664    -0.0203 C.ar    
   5 C5             2.3283     1.3287    -0.0130 C.ar    
   6 C6             1.1173     2.0186     0.0022 C.ar    
   7 O7            -1.1748    -0.6760     0.0101 O.3     
   8 N8             1.0930     3.4056     0.0095 N.pl3   
   9 C9            -2.3694     0.1080     0.0262 C.3     
  10 C10           -3.5873    -0.8182     0.0333 C.3     
  11 C11           -4.8663     0.0213     0.0505 C.3     
  12 N12            3.6208    -0.4901    -0.0351 N.am    
  13 C13            4.4216     0.5926    -0.0370 C.2     
  14 N14            3.6694     1.7108    -0.0238 N.am    
  15 O15            5.6382     0.5655    -0.0481 O.2     
  16 C16            4.0695    -1.8847    -0.0462 C.3     
  17 C17            4.2095    -2.3560    -1.4707 C.ar    
  18 C18            5.4157    -2.2039    -2.1311 C.ar    
  19 C19            3.1330    -2.9442    -2.1105 C.ar    
  20 C20            3.2548    -3.3783    -3.4144 C.ar    
  21 C21            4.4671    -3.2231    -4.0879 C.ar    
  22 C22            5.5506    -2.6338    -3.4351 C.ar    
  23 C23            4.6047    -3.6865    -5.4854 C.2     
  24 N24            5.6831    -3.5938    -6.2095 N.2     
  25 C25            5.6211    -4.0607    -7.4352 C.2     
  26 C26            4.4456    -4.5825    -7.8015 C.2     
  27 S27            3.3385    -4.4594    -6.4356 S.3     
  28 C28            6.8011    -4.0111    -8.3712 C.3     
  29 N29            6.8413    -2.7036    -9.0396 N.3     
  30 C30            8.1049    -2.5265    -9.7785 C.3     
  31 C31            7.7378    -2.2350   -11.2488 C.3     
  32 C32            6.2846    -1.7014   -11.1470 C.3     
  33 C33            5.7168    -2.5589    -9.9886 C.3     
  34 H34            1.9244     3.9053     0.0039 H       
  35 H35            0.2446     3.8757     0.0201 H       
  36 H36           -2.3824     0.7321     0.9197 H       
  37 H37           -2.4001     0.7417    -0.8602 H       
  38 H38           -3.5743    -1.4423    -0.8602 H       
  39 H39           -3.5566    -1.4519     0.9196 H       
  40 H40           -5.7339    -0.6385     0.0556 H       
  41 H41           -4.8793     0.6454     0.9440 H       
  42 H42           -4.8969     0.6550    -0.8358 H       
  43 H43            4.0026     2.6218    -0.0226 H       
  44 H44            5.0330    -1.9604     0.4579 H       
  45 H45            3.3386    -2.5056     0.4718 H       
  46 H46            6.2534    -1.7474    -1.6249 H       
  47 H47            2.1955    -3.0641    -1.5880 H       
  48 H48            2.4138    -3.8376    -3.9126 H       
  49 H49            6.4914    -2.5108    -3.9509 H       
  50 H50            4.2157    -5.0098    -8.7664 H       
  51 H51            7.7207    -4.1579    -7.8046 H       
  52 H52            6.7053    -4.7985    -9.1187 H       
  53 H53            8.6633    -1.6879    -9.3625 H       
  54 H54            8.7003    -3.4375    -9.7186 H       
  55 H55            8.3985    -1.4761   -11.6678 H       
  56 H56            7.7723    -3.1482   -11.8429 H       
  57 H57            6.2747    -0.6422   -10.8899 H       
  58 H58            5.7366    -1.8823   -12.0716 H       
  59 H59            5.4037    -3.5356   -10.3576 H       
  60 H60            4.8812    -2.0468    -9.5115 H       
@<TRIPOS>BOND
   1    1    2 ar
   2    1    6 ar
   3    2    3 ar
   4    2    7 1
   5    3    4 ar
   6    4    5 ar
   7    4   12 1
   8    5    6 ar
   9    5   14 1
  10    6    8 1
  11    7    9 1
  12    8   34 1
  13    8   35 1
  14    9   10 1
  15    9   36 1
  16    9   37 1
  17   10   11 1
  18   10   38 1
  19   10   39 1
  20   11   40 1
  21   11   41 1
  22   11   42 1
  23   12   13 am
  24   12   16 1
  25   13   14 am
  26   13   15 2
  27   14   43 1
  28   16   17 1
  29   16   44 1
  30   16   45 1
  31   17   18 ar
  32   17   19 ar
  33   18   22 ar
  34   18   46 1
  35   19   20 ar
  36   19   47 1
  37   20   21 ar
  38   20   48 1
  39   21   22 ar
  40   21   23 1
  41   22   49 1
  42   23   24 2
  43   23   27 1
  44   24   25 1
  45   25   26 2
  46   25   28 1
  47   26   27 1
  48   26   50 1
  49   28   29 1
  50   28   51 1
  51   28   52 1
  52   29   30 1
  53   29   33 1
  54   30   31 1
  55   30   53 1
  56   30   54 1
  57   31   32 1
  58   31   55 1
  59   31   56 1
  60   32   33 1
  61   32   57 1
  62   32   58 1
  63   33   59 1
  64   33   60 1

#	End of record

