#	Name: ASD01120187
#	Creating user name:	WinNT
#	Creation time:	15. 06. 2019 18:59

#	Modifying user name:	WinNT
#	Modification time:	15. 06. 2019 18:59

#	Program:	/corina/corina34_cracker 3.40 0067  02.08.2006

@<TRIPOS>MOLECULE
ASD01120187
  22   23    0    0    0
SMALL
NO_CHARGES


@<TRIPOS>ATOM
   1 C1            -0.0167     1.3828     0.0096 C.ar    
   2 C2             0.0021    -0.0041     0.0020 C.ar    
   3 C3            -1.1785    -0.7198     0.0090 C.ar    
   4 C4            -2.3914    -0.0514     0.0242 C.ar    
   5 C5            -2.4156     1.3515     0.0324 C.ar    
   6 C6            -1.2159     2.0636     0.0305 C.ar    
   7 O7            -3.6828    -0.4556     0.0344 O.3     
   8 C8            -4.4648     0.6381     0.0482 C.2     
   9 N9            -3.7266     1.7186     0.0472 N.2     
  10 Cl10           1.4775     2.2664     0.0001 Cl      
  11 N11           -5.8411     0.6234     0.0614 N.am    
  12 S12           -6.6843     2.0485     0.0777 S.o2    
  13 O13           -8.0475     1.6488     0.1144 O.2     
  14 O14           -6.1077     2.7847     1.1477 O.2     
  15 C15           -6.2913     2.8252    -1.5138 C.3     
  16 H16            0.9466    -0.5276    -0.0098 H       
  17 H17           -1.1563    -1.7995     0.0023 H       
  18 H18           -1.2263     3.1436     0.0371 H       
  19 H19           -6.3171    -0.2218     0.0612 H       
  20 H20           -6.6116     2.1722    -2.3256 H       
  21 H21           -6.8104     3.7807    -1.5898 H       
  22 H22           -5.2160     2.9894    -1.5822 H       
@<TRIPOS>BOND
   1    1    2 ar
   2    1   10 1
   3    1    6 ar
   4    2    3 ar
   5    2   16 1
   6    3    4 ar
   7    3   17 1
   8    4    5 ar
   9    4    7 1
  10    5    6 ar
  11    5    9 1
  12    6   18 1
  13    7    8 1
  14    8    9 2
  15    8   11 1
  16   11   12 am
  17   11   19 1
  18   12   13 2
  19   12   14 2
  20   12   15 1
  21   15   20 1
  22   15   21 1
  23   15   22 1

#	End of record

