#	Name: ASD01150325
#	Creating user name:	WinNT
#	Creation time:	15. 06. 2019 19:04

#	Modifying user name:	WinNT
#	Modification time:	15. 06. 2019 19:04

#	Program:	/corina/corina34_cracker 3.40 0067  02.08.2006

@<TRIPOS>MOLECULE
ASD01150325
  60   62    0    0    0
SMALL
NO_CHARGES


@<TRIPOS>ATOM
   1 N1            -0.0169     1.3926     0.0097 N.pl3   
   2 C2             0.0021    -0.0041     0.0020 C.2     
   3 C3            -1.3282    -0.4052     0.0126 C.2     
   4 N4            -2.0859     0.6950     0.0257 N.2     
   5 C5            -1.3234     1.7683     0.0301 C.2     
   6 C6             1.1390    -0.8368    -0.0137 C.2     
   7 C7             1.0965     2.2429     0.0036 C.ar    
   8 C8             1.3307     3.0746    -1.0833 C.ar    
   9 C9             2.4293     3.9117    -1.0863 C.ar    
  10 C10            3.2954     3.9221    -0.0084 C.ar    
  11 C11            3.0650     3.0947     1.0753 C.ar    
  12 C12            1.9648     2.2598     1.0870 C.ar    
  13 N13           -1.7777     3.0668     0.0439 N.3     
  14 C14           -3.2460     3.1108     0.0526 C.3     
  15 C15           -1.2221     3.8069     1.1848 C.3     
  16 O16            1.0070    -2.0474    -0.0189 O.2     
  17 O17            2.3748    -0.2923    -0.0230 O.3     
  18 C18            3.4817    -1.1959    -0.0388 C.3     
  19 C19            3.4084    -2.0704    -1.2921 C.3     
  20 C20            4.7889    -0.4008    -0.0475 C.3     
  21 C21            3.4331    -2.0838     1.2062 C.3     
  22 N22           -1.7882    -1.7164     0.0092 N.am    
  23 C23           -3.1126    -1.9659     0.0206 C.2     
  24 C24           -3.6009    -3.3576     0.0170 C.ar    
  25 O25           -3.9049    -1.0437     0.0338 O.2     
  26 C26           -2.6942    -4.4202     0.0019 C.ar    
  27 C27           -3.1571    -5.7184    -0.0014 C.ar    
  28 C28           -4.5181    -5.9752     0.0102 C.ar    
  29 C29           -5.4254    -4.9342     0.0253 C.ar    
  30 C30           -4.9776    -3.6219     0.0346 C.ar    
  31 O31           -5.8677    -2.5983     0.0498 O.3     
  32 C32           -7.2542    -2.9443     0.0554 C.3     
  33 H33            0.6549     3.0667    -1.9256 H       
  34 H34            2.6122     4.5586    -1.9316 H       
  35 H35            4.1537     4.5776    -0.0131 H       
  36 H36            3.7437     3.1046     1.9154 H       
  37 H37            1.7852     1.6140     1.9339 H       
  38 H38           -3.6195     2.6005     0.9404 H       
  39 H39           -3.5783     4.1489     0.0634 H       
  40 H40           -3.6296     2.6158    -0.8395 H       
  41 H41           -0.1343     3.8179     1.1157 H       
  42 H42           -1.5973     4.8302     1.1716 H       
  43 H43           -1.5223     3.3217     2.1135 H       
  44 H44            3.4430    -1.4378    -2.1791 H       
  45 H45            4.2528    -2.7596    -1.3042 H       
  46 H46            2.4771    -2.6368    -1.2859 H       
  47 H47            4.8412     0.2222     0.8454 H       
  48 H48            5.6333    -1.0900    -0.0596 H       
  49 H49            4.8235     0.2318    -0.9345 H       
  50 H50            2.5019    -2.6502     1.2124 H       
  51 H51            4.2775    -2.7730     1.1941 H       
  52 H52            3.4854    -1.4608     2.0991 H       
  53 H53           -1.1561    -2.4521    -0.0013 H       
  54 H54           -1.6321    -4.2247    -0.0076 H       
  55 H55           -2.4553    -6.5393    -0.0135 H       
  56 H56           -4.8719    -6.9956     0.0072 H       
  57 H57           -6.4851    -5.1425     0.0339 H       
  58 H58           -7.4880    -3.5225    -0.8385 H       
  59 H59           -7.4767    -3.5390     0.9413 H       
  60 H60           -7.8555    -2.0352     0.0677 H       
@<TRIPOS>BOND
   1    1    2 1
   2    1    7 1
   3    1    5 1
   4    2    3 2
   5    2    6 1
   6    3    4 1
   7    3   22 1
   8    4    5 2
   9    5   13 1
  10    6   16 2
  11    6   17 1
  12    7    8 ar
  13    7   12 ar
  14    8    9 ar
  15    8   33 1
  16    9   10 ar
  17    9   34 1
  18   10   11 ar
  19   10   35 1
  20   11   12 ar
  21   11   36 1
  22   12   37 1
  23   13   14 1
  24   13   15 1
  25   14   38 1
  26   14   39 1
  27   14   40 1
  28   15   41 1
  29   15   42 1
  30   15   43 1
  31   17   18 1
  32   18   19 1
  33   18   20 1
  34   18   21 1
  35   19   44 1
  36   19   45 1
  37   19   46 1
  38   20   47 1
  39   20   48 1
  40   20   49 1
  41   21   50 1
  42   21   51 1
  43   21   52 1
  44   22   23 am
  45   22   53 1
  46   23   24 1
  47   23   25 2
  48   24   26 ar
  49   24   30 ar
  50   26   27 ar
  51   26   54 1
  52   27   28 ar
  53   27   55 1
  54   28   29 ar
  55   28   56 1
  56   29   30 ar
  57   29   57 1
  58   30   31 1
  59   31   32 1
  60   32   58 1
  61   32   59 1
  62   32   60 1

#	End of record

