#	Name: ASD08070648
#	Creating user name:	WinNT
#	Creation time:	15. 06. 2019 21:15

#	Modifying user name:	WinNT
#	Modification time:	15. 06. 2019 21:15

#	Program:	/corina/corina34_cracker 3.40 0067  02.08.2006

@<TRIPOS>MOLECULE
ASD08070648
  41   41    0    0    0
SMALL
NO_CHARGES


@<TRIPOS>ATOM
   1 C1            -0.0184     1.5028     0.0103 C.2     
   2 C2             0.0021    -0.0041     0.0020 C.3     
   3 C3            -0.7241    -0.5171    -1.2431 C.3     
   4 C4            -0.8126    -2.0436    -1.1892 C.3     
   5 C5            -1.6900    -2.4622    -0.0077 C.3     
   6 O6             1.0197     2.1211     0.0037 O.2     
   7 O7            -1.1898     2.1580     0.0194 O.3     
   8 C8            -1.4263    -2.5652    -2.4901 C.3     
   9 C9             1.6937    -1.6942     0.4701 C.2     
  10 C10            3.0918    -2.1672     0.4542 C.ar    
  11 C11            3.4090    -3.4328     0.9556 C.ar    
  12 C12            4.7160    -3.8707     0.9383 C.ar    
  13 C13            5.7181    -3.0537     0.4224 C.ar    
  14 C14            5.4052    -1.7956    -0.0759 C.ar    
  15 C15            4.1003    -1.3535    -0.0672 C.ar    
  16 O16            0.8163    -2.4057     0.9197 O.2     
  17 N17            1.3897    -0.4735    -0.0138 N.am    
  18 O18            7.0044    -3.4875     0.4067 O.3     
  19 C19            7.9823    -2.5985    -0.1368 C.3     
  20 F20            5.0247    -5.0934     1.4228 F       
  21 C21           -1.1335     3.6089     0.0270 C.3     
  22 H22           -0.4983    -0.3791     0.8948 H       
  23 H23           -1.7288    -0.0959    -1.2772 H       
  24 H24           -0.1736    -0.2164    -2.1345 H       
  25 H25            0.1866    -2.4614    -1.0657 H       
  26 H26           -1.7530    -3.5497     0.0307 H       
  27 H27           -1.2528    -2.0906     0.9191 H       
  28 H28           -2.6891    -2.0444    -0.1312 H       
  29 H29           -0.8012    -2.2670    -3.3318 H       
  30 H30           -1.4893    -3.6527    -2.4517 H       
  31 H31           -2.4254    -2.1474    -2.6135 H       
  32 H32            2.6314    -4.0664     1.3561 H       
  33 H33            6.1856    -1.1643    -0.4746 H       
  34 H34            3.8580    -0.3768    -0.4594 H       
  35 H35            2.0897     0.0941    -0.3724 H       
  36 H36            7.7352    -2.3773    -1.1751 H       
  37 H37            7.9923    -1.6733     0.4394 H       
  38 H38            8.9655    -3.0668    -0.0892 H       
  39 H39           -0.6017     3.9472     0.9164 H       
  40 H40           -0.6102     3.9569    -0.8636 H       
  41 H41           -2.1463     4.0118     0.0340 H       
@<TRIPOS>BOND
   1    1    2 1
   2    1    6 2
   3    1    7 1
   4    2    3 1
   5    2   17 1
   6    2   22 1
   7    3    4 1
   8    3   23 1
   9    3   24 1
  10    4    5 1
  11    4    8 1
  12    4   25 1
  13    5   26 1
  14    5   27 1
  15    5   28 1
  16    7   21 1
  17    8   29 1
  18    8   30 1
  19    8   31 1
  20    9   10 1
  21    9   16 2
  22    9   17 am
  23   10   11 ar
  24   10   15 ar
  25   11   12 ar
  26   11   32 1
  27   12   13 ar
  28   12   20 1
  29   13   14 ar
  30   13   18 1
  31   14   15 ar
  32   14   33 1
  33   15   34 1
  34   17   35 1
  35   18   19 1
  36   19   36 1
  37   19   37 1
  38   19   38 1
  39   21   39 1
  40   21   40 1
  41   21   41 1

#	End of record

