#	Name: ASD01916416
#	Creating user name:	WinNT
#	Creation time:	15. 06. 2019 20:07

#	Modifying user name:	WinNT
#	Modification time:	15. 06. 2019 20:07

#	Program:	/corina/corina34_cracker 3.40 0067  02.08.2006

@<TRIPOS>MOLECULE
ASD01916416
  39   42    0    0    0
SMALL
NO_CHARGES


@<TRIPOS>ATOM
   1 C1            -0.0171     1.4097     0.0098 C.ar    
   2 C2             0.0021    -0.0041     0.0020 C.ar    
   3 C3            -1.1933    -0.7241     0.0147 C.ar    
   4 C4            -2.3854    -0.0616     0.0328 C.ar    
   5 C5            -2.4219     1.3411     0.0376 C.ar    
   6 C6            -1.2397     2.0776     0.0308 C.ar    
   7 N7             1.1610     2.0797     0.0021 N.2     
   8 C8             2.3073     1.4636    -0.0147 C.2     
   9 N9             2.4217     0.1063    -0.0365 N.am    
  10 C10            1.3089    -0.6719    -0.0210 C.2     
  11 C11            3.7160     2.0373    -0.0085 C.3     
  12 C12            4.5844     0.8175     0.3703 C.3     
  13 O13            3.7852    -0.2904    -0.0799 O.3     
  14 C14           -3.6828     2.0197     0.0543 C.1     
  15 C15           -4.7165     2.5761     0.0680 C.1     
  16 C16           -5.9773     3.2548     0.0846 C.ar    
  17 N17           -6.0115     4.5839     0.0892 N.ar    
  18 C18           -7.1506     5.2444     0.1044 C.ar    
  19 C19           -8.3609     4.5746     0.1167 C.ar    
  20 C20           -8.3724     3.1863     0.1124 C.ar    
  21 C21           -7.1630     2.5154     0.0902 C.ar    
  22 O22            1.3927    -1.8864    -0.0256 O.2     
  23 C23            5.9242     0.8552    -0.3676 C.3     
  24 C24            4.7984     0.7527     1.8838 C.3     
  25 H25           -1.1745    -1.8039     0.0099 H       
  26 H26           -3.3090    -0.6214     0.0430 H       
  27 H27           -1.2706     3.1572     0.0352 H       
  28 H28            3.9849     2.4103    -0.9967 H       
  29 H29            3.8086     2.8241     0.7402 H       
  30 H30           -7.1398     6.3243     0.1077 H       
  31 H31           -9.2889     5.1269     0.1298 H       
  32 H32           -9.3052     2.6421     0.1218 H       
  33 H33           -7.1354     1.4358     0.0859 H       
  34 H34            6.4608     1.7655    -0.1001 H       
  35 H35            6.5190    -0.0134    -0.0853 H       
  36 H36            5.7473     0.8405    -1.4430 H       
  37 H37            3.8337     0.6663     2.3838 H       
  38 H38            5.4127    -0.1142     2.1272 H       
  39 H39            5.3012     1.6599     2.2189 H       
@<TRIPOS>BOND
   1    1    2 ar
   2    1    7 1
   3    1    6 ar
   4    2    3 ar
   5    2   10 1
   6    3    4 ar
   7    3   25 1
   8    4    5 ar
   9    4   26 1
  10    5    6 ar
  11    5   14 1
  12    6   27 1
  13    7    8 2
  14    8    9 1
  15    8   11 1
  16    9   10 am
  17    9   13 1
  18   10   22 2
  19   11   12 1
  20   11   28 1
  21   11   29 1
  22   12   13 1
  23   12   23 1
  24   12   24 1
  25   14   15 3
  26   15   16 1
  27   16   17 ar
  28   16   21 ar
  29   17   18 ar
  30   18   19 ar
  31   18   30 1
  32   19   20 ar
  33   19   31 1
  34   20   21 ar
  35   20   32 1
  36   21   33 1
  37   23   34 1
  38   23   35 1
  39   23   36 1
  40   24   37 1
  41   24   38 1
  42   24   39 1

#	End of record

