#	Name: ASD07930481
#	Creating user name:	WinNT
#	Creation time:	15. 06. 2019 21:12

#	Modifying user name:	WinNT
#	Modification time:	15. 06. 2019 21:12

#	Program:	/corina/corina34_cracker 3.40 0067  02.08.2006

@<TRIPOS>MOLECULE
ASD07930481
  45   47    0    0    0
SMALL
NO_CHARGES


@<TRIPOS>ATOM
   1 Cl1           -8.9997    -4.5057    -8.1391 Cl      
   2 C2            -0.1442     1.4651     0.3087 C.3     
   3 N3             0.5896    -0.2177    -2.0452 N.2     
   4 N4            -0.9976    -1.6992    -1.1808 N.pl3   
   5 C5            -0.9256    -2.8146    -0.2311 C.3     
   6 C6            -1.1668    -2.2859     1.1896 C.3     
   7 S7             0.0525    -0.9768     1.5265 S.o2    
   8 N8            -0.0852     0.0062     0.1881 N.am    
   9 C9            -0.1418    -0.6252    -1.0462 C.2     
  10 C10            0.4586    -3.4619    -0.3073 C.3     
  11 C11           -1.9794    -3.8360    -0.5737 C.ar    
  12 C12           -2.8117    -3.6319    -1.6564 C.ar    
  13 C13           -3.7828    -4.5738    -1.9716 C.ar    
  14 C14           -3.9137    -5.7186    -1.1964 C.ar    
  15 C15           -3.0784    -5.9177    -0.1145 C.ar    
  16 C16           -2.1082    -4.9806     0.1938 C.ar    
  17 N17           -4.6276    -4.3694    -3.0675 N.am    
  18 C18           -5.0475    -5.4200    -3.7999 C.2     
  19 O19           -4.6180    -6.5330    -3.5679 O.2     
  20 O20           -0.3685    -0.1629     2.6127 O.2     
  21 O21            1.3757    -1.4903     1.4583 O.2     
  22 Cl22          -1.0597    -5.2343     1.5539 Cl      
  23 C23           -6.0321    -5.2182    -4.8873 C.ar    
  24 N24           -6.4974    -4.0000    -5.1357 N.ar    
  25 C25           -7.3724    -3.7773    -6.0917 C.ar    
  26 C26           -7.8442    -4.8158    -6.8812 C.ar    
  27 C27           -7.3835    -6.1051    -6.6549 C.ar    
  28 C28           -6.4578    -6.3079    -5.6446 C.ar    
  29 H29            0.8654     1.8741     0.2679 H       
  30 H30           -0.7352     1.8738    -0.5109 H       
  31 H31           -0.6065     1.7328     1.2588 H       
  32 H32            1.1861     0.5389    -1.9327 H       
  33 H33           -1.6431    -1.7183    -1.9046 H       
  34 H34           -2.1746    -1.8773     1.2634 H       
  35 H35           -1.0446    -3.0959     1.9087 H       
  36 H36            1.2196    -2.7226    -0.0573 H       
  37 H37            0.5115    -4.2907     0.3987 H       
  38 H38            0.6309    -3.8335    -1.3174 H       
  39 H39           -2.7081    -2.7406    -2.2573 H       
  40 H40           -4.6681    -6.4523    -1.4391 H       
  41 H41           -3.1800    -6.8077     0.4888 H       
  42 H42           -4.9113    -3.4715    -3.3003 H       
  43 H43           -7.7287    -2.7725    -6.2643 H       
  44 H44           -7.7355    -6.9308    -7.2554 H       
  45 H45           -6.0778    -7.2981    -5.4409 H       
@<TRIPOS>BOND
   1    1   26 1
   2    2    8 1
   3    2   29 1
   4    2   30 1
   5    2   31 1
   6    3    9 2
   7    3   32 1
   8    4    5 1
   9    4    9 1
  10    4   33 1
  11    5    6 1
  12    5   10 1
  13    5   11 1
  14    6    7 1
  15    6   34 1
  16    6   35 1
  17    7    8 am
  18    7   20 2
  19    7   21 2
  20    8    9 1
  21   10   36 1
  22   10   37 1
  23   10   38 1
  24   11   12 ar
  25   11   16 ar
  26   12   13 ar
  27   12   39 1
  28   13   14 ar
  29   13   17 1
  30   14   15 ar
  31   14   40 1
  32   15   16 ar
  33   15   41 1
  34   16   22 1
  35   17   18 am
  36   17   42 1
  37   18   19 2
  38   18   23 1
  39   23   24 ar
  40   23   28 ar
  41   24   25 ar
  42   25   26 ar
  43   25   43 1
  44   26   27 ar
  45   27   28 ar
  46   27   44 1
  47   28   45 1

#	End of record

