#	Name: ASD04882097
#	Creating user name:	WinNT
#	Creation time:	15. 06. 2019 20:54

#	Modifying user name:	WinNT
#	Modification time:	15. 06. 2019 20:54

#	Program:	/corina/corina34_cracker 3.40 0067  02.08.2006

@<TRIPOS>MOLECULE
ASD04882097
  78   82    0    0    0
SMALL
NO_CHARGES


@<TRIPOS>ATOM
   1 C1             2.2200     1.8346    -0.7771 C.ar    
   2 C2             2.2555     0.4569    -0.6915 C.ar    
   3 C3             1.0733    -0.2596    -0.5537 C.ar    
   4 C4            -0.1408     0.4130    -0.5024 C.ar    
   5 C5            -0.1692     1.7913    -0.5885 C.ar    
   6 C6             1.0093     2.5013    -0.7257 C.ar    
   7 C7            -1.4258    -0.3601    -0.3534 C.3     
   8 N8             1.1055    -1.6533    -0.4673 N.3     
   9 C9             0.6866    -2.1082     0.8658 C.3     
  10 C10            2.4395    -2.1710    -0.8021 C.3     
  11 C11            2.4120    -3.7010    -0.7734 C.3     
  12 N12            1.9931    -4.1559     0.5597 N.3     
  13 C13            0.6591    -3.6382     0.8945 C.3     
  14 C14            2.0253    -5.5452     0.6458 C.ar    
  15 C15            1.2407    -6.3118    -0.2078 C.ar    
  16 C16            2.8509    -6.1673     1.5868 C.ar    
  17 C17            2.8826    -7.5458     1.6721 C.ar    
  18 C18            2.0882    -8.3146     0.8162 C.ar    
  19 C19            1.2695    -7.6866    -0.1260 C.ar    
  20 N20            3.6462    -5.3930     2.4428 N.am    
  21 C21            3.8981    -5.8181     3.6968 C.2     
  22 C22            4.6551    -4.9342     4.6543 C.3     
  23 O23            3.5156    -6.9121     4.0546 O.2     
  24 C24            2.1189    -9.7870     0.9036 C.2     
  25 O25            2.8354   -10.3327     1.7205 O.2     
  26 N26            1.3527   -10.5272     0.0781 N.am    
  27 C27            1.3831   -11.9893     0.1649 C.3     
  28 C28            0.4295   -12.5818    -0.8745 C.3     
  29 C29            0.4612   -14.1088    -0.7838 C.3     
  30 N30           -0.4519   -14.6762    -1.7790 N.am    
  31 C31            3.8322    -3.6678     4.9604 C.3     
  32 C32            3.6468    -3.6980     6.4971 C.3     
  33 C33            4.8017    -4.6296     6.9452 C.3     
  34 O34            4.8579    -5.6234     5.8993 O.3     
  35 C35           -1.7511   -14.9378    -1.5544 C.2     
  36 C36           -0.0671   -15.0263    -3.1514 C.3     
  37 C37           -1.3945   -15.1589    -3.9305 C.3     
  38 C38           -2.3904   -15.5072    -2.8016 C.3     
  39 O39           -2.3268   -14.7458    -0.5043 O.2     
  40 H40            3.1390     2.3926    -0.8797 H       
  41 H41            3.2012    -0.0630    -0.7321 H       
  42 H42           -1.1129     2.3149    -0.5487 H       
  43 H43            0.9843     3.5789    -0.7925 H       
  44 H44           -1.6219    -0.5387     0.7038 H       
  45 H45           -2.2469     0.2135    -0.7834 H       
  46 H46           -1.3380    -1.3143    -0.8729 H       
  47 H47            1.3914    -1.7431     1.6128 H       
  48 H48           -0.3089    -1.7224     1.0855 H       
  49 H49            2.7220    -1.8310    -1.7985 H       
  50 H50            3.1643    -1.8066    -0.0741 H       
  51 H51            1.7072    -4.0661    -1.5204 H       
  52 H52            3.4075    -4.0868    -0.9931 H       
  53 H53            0.3767    -3.9782     1.8909 H       
  54 H54           -0.0656    -4.0026     0.1665 H       
  55 H55            0.6069    -5.8285    -0.9365 H       
  56 H56            3.5200    -8.0286     2.3981 H       
  57 H57            0.6551    -8.2794    -0.7875 H       
  58 H58            4.0153    -4.5513     2.1328 H       
  59 H59            5.6159    -4.6562     4.2211 H       
  60 H60            0.7811   -10.0918    -0.5736 H       
  61 H61            2.3958   -12.3437    -0.0273 H       
  62 H62            1.0724   -12.3005     1.1623 H       
  63 H63           -0.5832   -12.2274    -0.6823 H       
  64 H64            0.7402   -12.2706    -1.8718 H       
  65 H65            1.4739   -14.4632    -0.9760 H       
  66 H66            0.1505   -14.4201     0.2136 H       
  67 H67            4.3801    -2.7748     4.6597 H       
  68 H68            2.8655    -3.7104     4.4586 H       
  69 H69            3.7636    -2.7014     6.9227 H       
  70 H70            2.6789    -4.1224     6.7639 H       
  71 H71            5.7401    -4.0779     7.0013 H       
  72 H72            4.5704    -5.0939     7.9038 H       
  73 H73            0.5470   -14.2365    -3.5841 H       
  74 H74            0.4726   -15.9733    -3.1619 H       
  75 H75           -1.6629   -14.2160    -4.4070 H       
  76 H76           -1.3375   -15.9628    -4.6643 H       
  77 H77           -2.5041   -16.5876    -2.7131 H       
  78 H78           -3.3555   -15.0349    -2.9851 H       
@<TRIPOS>BOND
   1    1    2 ar
   2    1    6 ar
   3    1   40 1
   4    2    3 ar
   5    2   41 1
   6    3    4 ar
   7    3    8 1
   8    4    5 ar
   9    4    7 1
  10    5    6 ar
  11    5   42 1
  12    6   43 1
  13    7   44 1
  14    7   45 1
  15    7   46 1
  16    8    9 1
  17    8   10 1
  18    9   13 1
  19    9   47 1
  20    9   48 1
  21   10   11 1
  22   10   49 1
  23   10   50 1
  24   11   12 1
  25   11   51 1
  26   11   52 1
  27   12   13 1
  28   12   14 1
  29   13   53 1
  30   13   54 1
  31   14   15 ar
  32   14   16 ar
  33   15   19 ar
  34   15   55 1
  35   16   17 ar
  36   16   20 1
  37   17   18 ar
  38   17   56 1
  39   18   19 ar
  40   18   24 1
  41   19   57 1
  42   20   21 am
  43   20   58 1
  44   21   22 1
  45   21   23 2
  46   22   31 1
  47   22   34 1
  48   22   59 1
  49   24   25 2
  50   24   26 am
  51   26   27 1
  52   26   60 1
  53   27   28 1
  54   27   61 1
  55   27   62 1
  56   28   29 1
  57   28   63 1
  58   28   64 1
  59   29   30 1
  60   29   65 1
  61   29   66 1
  62   30   36 1
  63   30   35 am
  64   31   32 1
  65   31   67 1
  66   31   68 1
  67   32   33 1
  68   32   69 1
  69   32   70 1
  70   33   34 1
  71   33   71 1
  72   33   72 1
  73   35   39 2
  74   35   38 1
  75   36   37 1
  76   36   73 1
  77   36   74 1
  78   37   38 1
  79   37   75 1
  80   37   76 1
  81   38   77 1
  82   38   78 1

#	End of record

