#	Name: ASD03430855
#	Creating user name:	WinNT
#	Creation time:	15. 06. 2019 20:41

#	Modifying user name:	WinNT
#	Modification time:	15. 06. 2019 20:41

#	Program:	/corina/corina34_cracker 3.40 0067  02.08.2006

@<TRIPOS>MOLECULE
ASD03430855
  50   55    0    0    0
SMALL
NO_CHARGES


@<TRIPOS>ATOM
   1 O1            -0.0173     1.4251     0.0099 O.3     
   2 C2             0.0021    -0.0041     0.0020 C.3     
   3 C3             0.1356    -0.5335    -1.4173 C.3     
   4 C4             1.4641    -0.1557    -2.0534 C.3     
   5 O5             1.5645     1.2601    -2.2169 O.3     
   6 C6             2.0046     1.9551    -1.1278 C.ar    
   7 C7             1.2026     2.0376     0.0015 C.ar    
   8 C8             3.2432     2.5690    -1.1484 C.ar    
   9 C9             3.6965     3.2663    -0.0315 C.ar    
  10 C10            2.8815     3.3473     1.0937 C.ar    
  11 C11            1.6436     2.7368     1.1119 C.ar    
  12 O12            4.8817     3.9108     0.1689 O.3     
  13 C13            3.6317     4.1702     2.1064 C.3     
  14 C14            4.7443     4.8238     1.2748 C.3     
  15 N15            2.8189     4.9404     4.0987 N.am    
  16 C16            2.7579     5.1910     2.7754 C.2     
  17 C17            4.1899     3.3335     3.2197 C.ar    
  18 C18            5.0503     2.2593     3.2611 C.ar    
  19 C19            5.3866     1.6881     4.4754 C.ar    
  20 C20            4.8550     2.1980     5.6460 C.ar    
  21 C21            3.9931     3.2741     5.6094 C.ar    
  22 C22            3.6519     3.8581     4.3919 C.ar    
  23 O23            2.1217     6.0691     2.2320 O.2     
  24 C24            2.0960     5.7136     5.1115 C.3     
  25 C25            0.7412     5.0955     5.3430 C.ar    
  26 C26            0.5686     4.1963     6.3785 C.ar    
  27 C27           -0.6818     3.6338     6.5832 C.ar    
  28 C28           -1.7164     3.9984     5.7349 C.ar    
  29 C29           -1.4685     4.9038     4.7210 C.ar    
  30 N30           -0.2670     5.4228     4.5589 N.ar    
  31 H31            0.8456    -0.3548     0.5967 H       
  32 H32           -0.9240    -0.3779     0.4388 H       
  33 H33            0.0495    -1.6199    -1.3985 H       
  34 H34           -0.6742    -0.1274    -2.0234 H       
  35 H35            2.2780    -0.5017    -1.4162 H       
  36 H36            1.5443    -0.6359    -3.0286 H       
  37 H37            3.8603     2.5079    -2.0326 H       
  38 H38            1.0198     2.8050     1.9908 H       
  39 H39            5.6708     4.8828     1.8458 H       
  40 H40            4.4389     5.8106     0.9268 H       
  41 H41            5.4625     1.8624     2.3452 H       
  42 H42            6.0627     0.8466     4.5092 H       
  43 H43            5.1158     1.7508     6.5938 H       
  44 H44            3.5814     3.6653     6.5280 H       
  45 H45            2.6612     5.7097     6.0435 H       
  46 H46            1.9728     6.7399     4.7655 H       
  47 H47            1.3974     3.9350     7.0198 H       
  48 H48           -0.8461     2.9281     7.3841 H       
  49 H49           -2.7034     3.5796     5.8649 H       
  50 H50           -2.2690     5.1929     4.0561 H       
@<TRIPOS>BOND
   1    1    2 1
   2    1    7 1
   3    2    3 1
   4    2   31 1
   5    2   32 1
   6    3    4 1
   7    3   33 1
   8    3   34 1
   9    4    5 1
  10    4   35 1
  11    4   36 1
  12    5    6 1
  13    6    7 ar
  14    6    8 ar
  15    7   11 ar
  16    8    9 ar
  17    8   37 1
  18    9   10 ar
  19    9   12 1
  20   10   11 ar
  21   10   13 1
  22   11   38 1
  23   12   14 1
  24   13   14 1
  25   13   16 1
  26   13   17 1
  27   14   39 1
  28   14   40 1
  29   15   16 am
  30   15   22 1
  31   15   24 1
  32   16   23 2
  33   17   18 ar
  34   17   22 ar
  35   18   19 ar
  36   18   41 1
  37   19   20 ar
  38   19   42 1
  39   20   21 ar
  40   20   43 1
  41   21   22 ar
  42   21   44 1
  43   24   25 1
  44   24   45 1
  45   24   46 1
  46   25   26 ar
  47   25   30 ar
  48   26   27 ar
  49   26   47 1
  50   27   28 ar
  51   27   48 1
  52   28   29 ar
  53   28   49 1
  54   29   30 ar
  55   29   50 1

#	End of record

