#	Name: ASD01914178
#	Creating user name:	WinNT
#	Creation time:	15. 06. 2019 20:03

#	Modifying user name:	WinNT
#	Modification time:	15. 06. 2019 20:03

#	Program:	/corina/corina34_cracker 3.40 0067  02.08.2006

@<TRIPOS>MOLECULE
ASD01914178
  39   41    0    0    0
SMALL
NO_CHARGES


@<TRIPOS>ATOM
   1 C1            -0.2132     1.5672     0.4314 C.2     
   2 C2            -0.2133     0.2278     0.5459 C.2     
   3 C3             1.0650    -0.4851     0.6626 C.2     
   4 C4             2.1750     0.1832     0.9724 C.2     
   5 C5             2.1140     1.6717     1.2099 C.3     
   6 N6             1.0028     2.2339     0.4321 N.pl3   
   7 C7             1.1623     3.3810    -0.2713 C.1     
   8 C8             1.3006     4.3749    -0.8808 C.1     
   9 C9             1.4739     5.6210    -1.6449 C.3     
  10 C10            2.9037     6.1350    -1.4648 C.3     
  11 N11            2.3698     8.4016    -1.6624 N.pl3   
  12 N12            3.0767     7.3786    -2.2274 N.3     
  13 N13            4.3914     7.7491    -2.2682 N.pl3   
  14 C14            4.4904     9.0380    -1.7110 C.2     
  15 C15            3.2609     9.4251    -1.3469 C.2     
  16 C16            5.7314     9.8246    -1.5550 C.ar    
  17 C17            6.5288    10.1059    -2.6677 C.ar    
  18 C18            7.6865    10.8418    -2.5142 C.ar    
  19 C19            8.0577    11.2999    -1.2622 C.ar    
  20 C20            7.2728    11.0243    -0.1568 C.ar    
  21 C21            6.1097    10.2952    -0.2964 C.ar    
  22 Cl22           6.0650     9.5309    -4.2386 Cl      
  23 H23           -1.1406     2.1123     0.3364 H       
  24 H24           -1.1448    -0.3187     0.5524 H       
  25 H25            1.1054    -1.5517     0.4975 H       
  26 H26            3.1165    -0.3396     1.0538 H       
  27 H27            1.9520     1.8656     2.2702 H       
  28 H28            3.0504     2.1304     0.8925 H       
  29 H29            1.2875     5.4283    -2.7014 H       
  30 H30            0.7701     6.3703    -1.2825 H       
  31 H31            3.0902     6.3277    -0.4083 H       
  32 H32            3.6075     5.3857    -1.8272 H       
  33 H33            1.4118     8.4149    -1.5107 H       
  34 H34            5.1246     7.2191    -2.6180 H       
  35 H35            3.0044    10.3686    -0.8882 H       
  36 H36            8.3040    11.0602    -3.3728 H       
  37 H37            8.9647    11.8749    -1.1475 H       
  38 H38            7.5690    11.3844     0.8174 H       
  39 H39            5.4959    10.0849     0.5669 H       
@<TRIPOS>BOND
   1    1    2 2
   2    1    6 1
   3    1   23 1
   4    2    3 1
   5    2   24 1
   6    3    4 2
   7    3   25 1
   8    4    5 1
   9    4   26 1
  10    5    6 1
  11    5   27 1
  12    5   28 1
  13    6    7 1
  14    7    8 3
  15    8    9 1
  16    9   10 1
  17    9   29 1
  18    9   30 1
  19   10   12 1
  20   10   31 1
  21   10   32 1
  22   11   12 1
  23   11   15 1
  24   11   33 1
  25   12   13 1
  26   13   14 1
  27   13   34 1
  28   14   15 2
  29   14   16 1
  30   15   35 1
  31   16   17 ar
  32   16   21 ar
  33   17   18 ar
  34   17   22 1
  35   18   19 ar
  36   18   36 1
  37   19   20 ar
  38   19   37 1
  39   20   21 ar
  40   20   38 1
  41   21   39 1

#	End of record

