#	Name: ASD01910129
#	Creating user name:	WinNT
#	Creation time:	15. 06. 2019 19:55

#	Modifying user name:	WinNT
#	Modification time:	15. 06. 2019 19:55

#	Program:	/corina/corina34_cracker 3.40 0067  02.08.2006

@<TRIPOS>MOLECULE
ASD01910129
  32   34    0    0    0
SMALL
NO_CHARGES


@<TRIPOS>ATOM
   1 C1            -0.0167     1.3797     0.0096 C.ar    
   2 C2             0.0021    -0.0041     0.0020 C.ar    
   3 C3             1.2058    -0.6867    -0.0127 C.ar    
   4 C4             2.3967     0.0085    -0.0204 C.ar    
   5 C5             2.3859     1.4064    -0.0133 C.ar    
   6 C6             1.1660     2.0889     0.0021 C.ar    
   7 C7             3.6183     2.1356    -0.0212 C.1     
   8 C8             4.6287     2.7334    -0.0276 C.1     
   9 C9             5.8611     3.4626    -0.0355 C.ar    
  10 N10            5.8346     4.7922    -0.0286 N.ar    
  11 C11            6.9404     5.5120    -0.0360 C.ar    
  12 C12            8.1832     4.8723    -0.0459 C.ar    
  13 C13            8.2472     3.4697    -0.0556 C.ar    
  14 C14            7.0746     2.7641    -0.0447 C.ar    
  15 C15            6.8317     7.0133    -0.0406 C.3     
  16 C16            8.1033     7.6613     0.4998 C.3     
  17 C17            9.3130     7.1510    -0.2943 C.3     
  18 C18            9.4252     5.6619    -0.0403 C.2     
  19 O19           10.5010     5.1385     0.1603 O.2     
  20 H20           -0.9600     1.9056     0.0170 H       
  21 H21           -0.9274    -0.5540     0.0080 H       
  22 H22            1.2126    -1.7667    -0.0179 H       
  23 H23            3.3354    -0.5256    -0.0316 H       
  24 H24            1.1498     3.1687     0.0074 H       
  25 H25            9.1991     2.9598    -0.0671 H       
  26 H26            7.0850     1.6842    -0.0515 H       
  27 H27            6.6624     7.3560    -1.0614 H       
  28 H28            5.9870     7.3122     0.5801 H       
  29 H29            8.0316     8.7440     0.3971 H       
  30 H30            8.2240     7.4030     1.5519 H       
  31 H31            9.1624     7.3353    -1.3580 H       
  32 H32           10.2182     7.6542     0.0454 H       
@<TRIPOS>BOND
   1    1    2 ar
   2    1    6 ar
   3    1   20 1
   4    2    3 ar
   5    2   21 1
   6    3    4 ar
   7    3   22 1
   8    4    5 ar
   9    4   23 1
  10    5    6 ar
  11    5    7 1
  12    6   24 1
  13    7    8 3
  14    8    9 1
  15    9   10 ar
  16    9   14 ar
  17   10   11 ar
  18   11   12 ar
  19   11   15 1
  20   12   13 ar
  21   12   18 1
  22   13   14 ar
  23   13   25 1
  24   14   26 1
  25   15   16 1
  26   15   27 1
  27   15   28 1
  28   16   17 1
  29   16   29 1
  30   16   30 1
  31   17   18 1
  32   17   31 1
  33   17   32 1
  34   18   19 2

#	End of record

