#	Name: ASD01811453
#	Creating user name:	WinNT
#	Creation time:	15. 06. 2019 19:26

#	Modifying user name:	WinNT
#	Modification time:	15. 06. 2019 19:26

#	Program:	/corina/corina34_cracker 3.40 0067  02.08.2006

@<TRIPOS>MOLECULE
ASD01811453
  15   15    0    0    0
SMALL
NO_CHARGES


@<TRIPOS>ATOM
   1 C1            -0.0187     1.5294     0.0105 C.3     
   2 C2             0.0021    -0.0041     0.0020 C.3     
   3 C3             0.8790    -0.4565    -1.1477 C.2     
   4 C4             2.2410     0.1923    -1.2883 C.3     
   5 C5             2.0577     1.7115    -1.1862 C.3     
   6 O6             1.3235     2.0194     0.0003 O.3     
   7 O7             0.5062    -1.3036    -1.9234 O.2     
   8 Br8            0.7386    -0.6674     1.6998 Br      
   9 H9            -0.5449     1.8911    -0.8730 H       
  10 H10           -0.5279     1.8815     0.9076 H       
  11 H11           -1.0099    -0.3852    -0.1348 H       
  12 H12            2.8977    -0.1537    -0.4901 H       
  13 H13            2.6718    -0.0623    -2.2566 H       
  14 H14            3.0343     2.1939    -1.1454 H       
  15 H15            1.5096     2.0712    -2.0570 H       
@<TRIPOS>BOND
   1    1    2 1
   2    1    6 1
   3    1    9 1
   4    1   10 1
   5    2    3 1
   6    2    8 1
   7    2   11 1
   8    3    4 1
   9    3    7 2
  10    4    5 1
  11    4   12 1
  12    4   13 1
  13    5    6 1
  14    5   14 1
  15    5   15 1

#	End of record

