#	Name: ASD05313191
#	Creating user name:	WinNT
#	Creation time:	15. 06. 2019 20:58

#	Modifying user name:	WinNT
#	Modification time:	15. 06. 2019 20:58

#	Program:	/corina/corina34_cracker 3.40 0067  02.08.2006

@<TRIPOS>MOLECULE
ASD05313191
  38   41    0    0    0
SMALL
NO_CHARGES


@<TRIPOS>ATOM
   1 C1            -0.0726     0.8197     1.0210 C.2     
   2 C2             0.1132    -0.6171     0.5947 C.3     
   3 N3             0.9314     1.7330     1.0471 N.pl3   
   4 N4             1.4566    -0.7173    -0.0063 N.am    
   5 C5             2.5710    -0.0362     0.6699 C.3     
   6 C6             2.3180     1.4762     0.6619 C.3     
   7 N7            -0.9053     2.6437     1.7034 N.2     
   8 N8            -1.1573     1.4114     1.4224 N.2     
   9 C9             0.3726     2.8945     1.4908 C.2     
  10 S10            0.3085     5.6646     2.2717 S.3     
  11 C11            1.0625     4.1801     1.6959 C.2     
  12 N12            2.3292     4.4020     1.4805 N.2     
  13 C13            2.7714     5.6135     1.7193 C.2     
  14 C14            1.8617     6.4904     2.1609 C.2     
  15 C15            2.1205     7.9350     2.5035 C.3     
  16 C16            1.6572    -1.4138    -1.1426 C.2     
  17 O17            2.7492    -1.4040    -1.6768 O.2     
  18 C18            0.5503    -2.1891    -1.7389 C.ar    
  19 C19            0.3190    -2.1362    -3.1160 C.ar    
  20 C20           -0.7187    -2.8650    -3.6671 C.ar    
  21 C21           -1.5275    -3.6454    -2.8552 C.ar    
  22 C22           -1.3013    -3.6995    -1.4899 C.ar    
  23 C23           -0.2656    -2.9821    -0.9296 C.ar    
  24 F24           -0.9451    -2.8163    -4.9981 F       
  25 Cl25          -2.8293    -4.5578    -3.5526 Cl      
  26 Cl26           1.3314    -1.1580    -4.1319 Cl      
  27 H27            0.0433    -1.2743     1.4614 H       
  28 H28           -0.6445    -0.8878    -0.1407 H       
  29 H29            2.6420    -0.3880     1.6992 H       
  30 H30            3.5018    -0.2524     0.1456 H       
  31 H31            2.4971     1.8701    -0.3385 H       
  32 H32            2.9888     1.9615     1.3709 H       
  33 H33            3.8055     5.8866     1.5693 H       
  34 H34            1.1930     8.4016     2.8352 H       
  35 H35            2.8615     7.9922     3.3009 H       
  36 H36            2.4944     8.4560     1.6221 H       
  37 H37           -1.9353    -4.3088    -0.8629 H       
  38 H38           -0.0887    -3.0297     0.1348 H       
@<TRIPOS>BOND
   1    1    2 1
   2    1    3 1
   3    1    8 2
   4    2    4 1
   5    2   27 1
   6    2   28 1
   7    3    6 1
   8    3    9 1
   9    4    5 1
  10    4   16 am
  11    5    6 1
  12    5   29 1
  13    5   30 1
  14    6   31 1
  15    6   32 1
  16    7    8 1
  17    7    9 2
  18    9   11 1
  19   10   11 1
  20   10   14 1
  21   11   12 2
  22   12   13 1
  23   13   14 2
  24   13   33 1
  25   14   15 1
  26   15   34 1
  27   15   35 1
  28   15   36 1
  29   16   17 2
  30   16   18 1
  31   18   19 ar
  32   18   23 ar
  33   19   20 ar
  34   19   26 1
  35   20   21 ar
  36   20   24 1
  37   21   22 ar
  38   21   25 1
  39   22   23 ar
  40   22   37 1
  41   23   38 1

#	End of record

