#	Name: ASD01940712
#	Creating user name:	WinNT
#	Creation time:	15. 06. 2019 20:13

#	Modifying user name:	WinNT
#	Modification time:	15. 06. 2019 20:13

#	Program:	/corina/corina34_cracker 3.40 0067  02.08.2006

@<TRIPOS>MOLECULE
ASD01940712
  53   55    0    0    0
SMALL
NO_CHARGES


@<TRIPOS>ATOM
   1 C1             0.2814     0.9258     1.0717 C.ar    
   2 C2            -0.1270     0.1570    -0.0027 C.ar    
   3 C3             0.7198    -0.0387    -1.0804 C.ar    
   4 C4             1.9813     0.5348    -1.0869 C.ar    
   5 C5             2.3968     1.3077    -0.0107 C.ar    
   6 C6             1.5421     1.5037     1.0729 C.ar    
   7 N7             1.9560     2.2832     2.1615 N.am    
   8 S8             1.4830     1.8795     3.6963 S.o2    
   9 C9             2.1614     0.2174     3.9566 C.3     
  10 O10            2.1447     2.8239     4.5267 O.2     
  11 O11            0.0645     1.8337     3.6252 O.2     
  12 F12            0.3157    -0.7907    -2.1275 F       
  13 F13            2.8063     0.3418    -2.1391 F       
  14 N14            3.6721     1.8889    -0.0138 N.pl3   
  15 C15            4.7918     1.1226     0.3339 C.ar    
  16 C16            6.0472     1.7174     0.4065 C.ar    
  17 C17            4.6488    -0.2295     0.6118 C.ar    
  18 C18            5.7538    -0.9851     0.9548 C.ar    
  19 C19            7.0061    -0.3934     1.0217 C.ar    
  20 C20            7.1510     0.9595     0.7499 C.ar    
  21 F21            6.1876     3.0347     0.1413 F       
  22 C22            1.7978    -0.2999     5.3637 C.3     
  23 C23            3.0211    -1.0812     5.8745 C.3     
  24 C24            4.0853    -1.0114     4.7599 C.3     
  25 C25            3.7097     0.2575     3.9550 C.3     
  26 O26            8.0924    -1.1386     1.3594 O.3     
  27 C27            9.3515    -0.4646     1.4090 C.3     
  28 C28           10.4465    -1.4579     1.8033 C.3     
  29 O29            1.5214     0.7999     6.2333 O.3     
  30 C30            0.5756     0.5036     7.2627 C.3     
  31 H31           -0.3836     1.0799     1.9086 H       
  32 H32           -1.1091    -0.2922    -0.0010 H       
  33 H33            2.5195     3.0591     2.0159 H       
  34 H34            1.7947    -0.4674     3.1919 H       
  35 H35            3.7794     2.8218    -0.2568 H       
  36 H36            3.6738    -0.6912     0.5604 H       
  37 H37            5.6419    -2.0372     1.1714 H       
  38 H38            8.1267     1.4193     0.8022 H       
  39 H39            0.9311    -0.9585     5.3070 H       
  40 H40            3.4039    -0.6214     6.7856 H       
  41 H41            2.7481    -2.1190     6.0657 H       
  42 H42            5.0818    -0.9094     5.1898 H       
  43 H43            4.0314    -1.8958     4.1251 H       
  44 H44            4.0966     0.1981     2.9377 H       
  45 H45            4.0735     1.1545     4.4560 H       
  46 H46            9.5777    -0.0447     0.4289 H       
  47 H47            9.3057     0.3371     2.1461 H       
  48 H48           10.2203    -1.8779     2.7833 H       
  49 H49           10.4923    -2.2596     1.0662 H       
  50 H50           11.4069    -0.9438     1.8411 H       
  51 H51           -0.3706     0.2045     6.8116 H       
  52 H52            0.9555    -0.3087     7.8823 H       
  53 H53            0.4204     1.3889     7.8793 H       
@<TRIPOS>BOND
   1    1    2 ar
   2    1    6 ar
   3    1   31 1
   4    2    3 ar
   5    2   32 1
   6    3    4 ar
   7    3   12 1
   8    4    5 ar
   9    4   13 1
  10    5    6 ar
  11    5   14 1
  12    6    7 1
  13    7    8 am
  14    7   33 1
  15    8   10 2
  16    8   11 2
  17    8    9 1
  18    9   22 1
  19    9   25 1
  20    9   34 1
  21   14   15 1
  22   14   35 1
  23   15   16 ar
  24   15   17 ar
  25   16   21 1
  26   16   20 ar
  27   17   18 ar
  28   17   36 1
  29   18   19 ar
  30   18   37 1
  31   19   20 ar
  32   19   26 1
  33   20   38 1
  34   22   23 1
  35   22   29 1
  36   22   39 1
  37   23   24 1
  38   23   40 1
  39   23   41 1
  40   24   25 1
  41   24   42 1
  42   24   43 1
  43   25   44 1
  44   25   45 1
  45   26   27 1
  46   27   28 1
  47   27   46 1
  48   27   47 1
  49   28   48 1
  50   28   49 1
  51   28   50 1
  52   29   30 1
  53   30   51 1
  54   30   52 1
  55   30   53 1

#	End of record

