#	Name: ASD01890480
#	Creating user name:	WinNT
#	Creation time:	15. 06. 2019 19:51

#	Modifying user name:	WinNT
#	Modification time:	15. 06. 2019 19:51

#	Program:	/corina/corina34_cracker 3.40 0067  02.08.2006

@<TRIPOS>MOLECULE
ASD01890480
  46   48    0    0    0
SMALL
NO_CHARGES


@<TRIPOS>ATOM
   1 C1            -0.0242     1.4459    -0.1097 C.2     
   2 C2             0.0018    -0.0162    -0.1206 C.2     
   3 C3             1.1809    -0.6696    -0.1750 C.2     
   4 C4             2.4582     0.0982    -0.3983 C.3     
   5 C5             3.0730     0.4694     0.9526 C.3     
   6 O6             1.0160     2.0720    -0.0380 O.2     
   7 O7            -1.2015     2.1002    -0.1847 O.3     
   8 C8             1.2197    -2.1322    -0.0162 C.ar    
   9 C9             0.6135    -2.9589    -0.9676 C.ar    
  10 C10            0.6546    -4.3283    -0.8119 C.ar    
  11 C11            1.2932    -4.8852     0.2825 C.ar    
  12 C12            1.8950    -4.0738     1.2286 C.ar    
  13 C13            1.8679    -2.7029     1.0839 C.ar    
  14 C14            4.3504     1.2373     0.7293 C.ar    
  15 C15            4.3179     2.6157     0.6259 C.ar    
  16 C16            5.4873     3.3219     0.4211 C.ar    
  17 C17            6.6953     2.6469     0.3197 C.ar    
  18 C18            6.7252     1.2636     0.4243 C.ar    
  19 C19            5.5535     0.5625     0.6339 C.ar    
  20 O20            7.8470     3.3392     0.1179 O.3     
  21 C21            7.7863     4.6966     0.1325 C.ar    
  22 C22            7.6622     5.3738     1.3372 C.ar    
  23 C23            7.6011     6.7538     1.3493 C.ar    
  24 C24            7.6631     7.4602     0.1623 C.ar    
  25 C25            7.7868     6.7878    -1.0395 C.ar    
  26 C26            7.8540     5.4082    -1.0568 C.ar    
  27 H27           -0.9230    -0.5730    -0.0852 H       
  28 H28            3.1598    -0.5190    -0.9595 H       
  29 H29            2.2425     1.0064    -0.9612 H       
  30 H30            2.3714     1.0867     1.5138 H       
  31 H31            3.2887    -0.4388     1.5155 H       
  32 H32           -1.1178     3.0635    -0.1705 H       
  33 H33            0.1143    -2.5258    -1.8217 H       
  34 H34            0.1870    -4.9680    -1.5457 H       
  35 H35            1.3217    -5.9585     0.3990 H       
  36 H36            2.3907    -4.5159     2.0802 H       
  37 H37            2.3419    -2.0712     1.8206 H       
  38 H38            3.3773     3.1407     0.7049 H       
  39 H39            5.4613     4.3985     0.3397 H       
  40 H40            7.6641     0.7357     0.3457 H       
  41 H41            5.5767    -0.5138     0.7194 H       
  42 H42            7.6130     4.8225     2.2646 H       
  43 H43            7.5045     7.2813     2.2867 H       
  44 H44            7.6145     8.5390     0.1739 H       
  45 H45            7.8347     7.3419    -1.9653 H       
  46 H46            7.9547     4.8836    -1.9955 H       
@<TRIPOS>BOND
   1    1    2 1
   2    1    6 2
   3    1    7 1
   4    2    3 2
   5    2   27 1
   6    3    4 1
   7    3    8 1
   8    4    5 1
   9    4   28 1
  10    4   29 1
  11    5   14 1
  12    5   30 1
  13    5   31 1
  14    7   32 1
  15    8    9 ar
  16    8   13 ar
  17    9   10 ar
  18    9   33 1
  19   10   11 ar
  20   10   34 1
  21   11   12 ar
  22   11   35 1
  23   12   13 ar
  24   12   36 1
  25   13   37 1
  26   14   15 ar
  27   14   19 ar
  28   15   16 ar
  29   15   38 1
  30   16   17 ar
  31   16   39 1
  32   17   18 ar
  33   17   20 1
  34   18   19 ar
  35   18   40 1
  36   19   41 1
  37   20   21 1
  38   21   22 ar
  39   21   26 ar
  40   22   23 ar
  41   22   42 1
  42   23   24 ar
  43   23   43 1
  44   24   25 ar
  45   24   44 1
  46   25   26 ar
  47   25   45 1
  48   26   46 1

#	End of record

