#	Name: ASD04220048
#	Creating user name:	WinNT
#	Creation time:	15. 06. 2019 20:48

#	Modifying user name:	WinNT
#	Modification time:	15. 06. 2019 20:48

#	Program:	/corina/corina34_cracker 3.40 0067  02.08.2006

@<TRIPOS>MOLECULE
ASD04220048
  60   62    0    0    0
SMALL
NO_CHARGES


@<TRIPOS>ATOM
   1 C1            -0.0168     1.3872     0.0097 C.ar    
   2 C2             0.0021    -0.0041     0.0020 C.ar    
   3 C3             1.2065    -0.6827    -0.0131 C.ar    
   4 C4             2.4001     0.0338    -0.0206 C.ar    
   5 C5             2.3802     1.4376    -0.0129 C.ar    
   6 C6             1.1596     2.1041     0.0023 C.ar    
   7 C7             3.8241    -0.3497    -0.0363 C.2     
   8 C8             4.5381     0.8136    -0.0368 C.2     
   9 N9             3.6921     1.8702    -0.0231 N.pl3   
  10 C10            6.0421     0.9076    -0.0499 C.3     
  11 O11            6.4335     2.2819    -0.0465 O.3     
  12 C12            7.7684     2.5439    -0.0572 C.ar    
  13 C13            8.2198     3.8640    -0.0546 C.ar    
  14 C14            8.6764     1.5024    -0.0649 C.ar    
  15 C15           10.0402     1.7780    -0.0758 C.ar    
  16 C16           10.4965     3.1038    -0.0790 C.ar    
  17 C17            9.5735     4.1425    -0.0658 C.ar    
  18 C18           11.2586     0.9424    -0.0860 C.2     
  19 C19           12.3037     1.8147    -0.0941 C.2     
  20 O20           11.8460     3.0719    -0.0899 O.3     
  21 C21           11.3278    -0.5250    -0.0863 C.2     
  22 O22           10.3048    -1.1818    -0.0776 O.2     
  23 C23            4.3664    -1.7129    -0.0483 C.2     
  24 O24            4.5810    -2.2726    -1.1063 O.2     
  25 O25           -1.1672    -0.6981     0.0099 O.3     
  26 S26           -1.7133    -1.0066    -1.3769 S.o2    
  27 O27           -3.0993    -1.4119    -1.2012 O.co2   
  28 O28           -1.5967     0.2167    -2.1553 O.co2   
  29 O29           -0.8954    -2.0797    -1.9206 O.co2   
  30 O30           12.5258    -1.1433    -0.0963 O.3     
  31 C31           13.9580    -3.1128    -0.1081 C.3     
  32 C32           12.5183    -2.5953    -0.0961 C.3     
  33 O33            7.3209     4.8846    -0.0413 O.3     
  34 C34            7.8476     6.2130    -0.0394 C.3     
  35 O35            4.6268    -2.3453     1.1138 O.3     
  36 C36            5.3918    -4.2426     2.4349 C.3     
  37 C37            5.1621    -3.6921     1.0259 C.3     
  38 H38           -0.9620     1.9096     0.0170 H       
  39 H39            1.2213    -1.7626    -0.0187 H       
  40 H40            1.1340     3.1838     0.0083 H       
  41 H41            3.9681     2.8001    -0.0204 H       
  42 H42            6.4447     0.4129     0.8340 H       
  43 H43            6.4287     0.4219    -0.9458 H       
  44 H44            8.3293     0.4797    -0.0621 H       
  45 H45            9.9139     5.1674    -0.0685 H       
  46 H46           13.3465     1.5338    -0.1026 H       
  47 H47           14.4662    -2.7523    -1.0025 H       
  48 H48           14.4812    -2.7520     0.7774 H       
  49 H49           13.9524    -4.2028    -0.1079 H       
  50 H50           12.0101    -2.9558     0.7983 H       
  51 H51           11.9951    -2.9561    -0.9816 H       
  52 H52            7.0262     6.9295    -0.0284 H       
  53 H53            8.4672     6.3569     0.8458 H       
  54 H54            8.4511     6.3659    -0.9340 H       
  55 H55            5.7936    -5.2537     2.3689 H       
  56 H56            6.0997    -3.6041     2.9634 H       
  57 H57            4.4459    -4.2621     2.9761 H       
  58 H58            4.4542    -4.3306     0.4974 H       
  59 H59            6.1080    -3.6726     0.4848 H       
  60 Na60          19.4812    11.9295     7.9761 Du      
@<TRIPOS>BOND
   1    1    2 ar
   2    1    6 ar
   3    1   38 1
   4    2    3 ar
   5    2   25 1
   6    3    4 ar
   7    3   39 1
   8    4    5 ar
   9    4    7 1
  10    5    6 ar
  11    5    9 1
  12    6   40 1
  13    7    8 2
  14    7   23 1
  15    8    9 1
  16    8   10 1
  17    9   41 1
  18   10   11 1
  19   10   42 1
  20   10   43 1
  21   11   12 1
  22   12   13 ar
  23   12   14 ar
  24   13   33 1
  25   13   17 ar
  26   14   15 ar
  27   14   44 1
  28   15   16 ar
  29   15   18 1
  30   16   17 ar
  31   16   20 1
  32   17   45 1
  33   18   19 2
  34   18   21 1
  35   19   20 1
  36   19   46 1
  37   21   22 2
  38   21   30 1
  39   23   24 2
  40   23   35 1
  41   25   26 1
  42   26   27 ar
  43   26   28 ar
  44   26   29 ar
  45   30   32 1
  46   31   32 1
  47   31   47 1
  48   31   48 1
  49   31   49 1
  50   32   50 1
  51   32   51 1
  52   33   34 1
  53   34   52 1
  54   34   53 1
  55   34   54 1
  56   35   37 1
  57   36   37 1
  58   36   55 1
  59   36   56 1
  60   36   57 1
  61   37   58 1
  62   37   59 1

#	End of record

