#	Name: ASD01920005
#	Creating user name:	WinNT
#	Creation time:	15. 06. 2019 20:11

#	Modifying user name:	WinNT
#	Modification time:	15. 06. 2019 20:11

#	Program:	/corina/corina34_cracker 3.40 0067  02.08.2006

@<TRIPOS>MOLECULE
ASD01920005
  40   43    0    0    0
SMALL
NO_CHARGES


@<TRIPOS>ATOM
   1 N1            -0.0674     1.2785    -0.4681 N.am    
   2 C2            -0.0014    -0.0101    -0.0069 C.2     
   3 C3            -1.1053    -0.6507     0.4756 C.2     
   4 C4            -2.3354     0.0173     0.5033 C.2     
   5 C5            -2.3939     1.3400     0.0283 C.2     
   6 C6            -1.2315     1.9633    -0.4557 C.2     
   7 O7            -3.5820    -0.2827     0.8923 O.3     
   8 N8            -4.3618     0.6280     0.7304 N.2     
   9 C9            -3.8043     1.6963     0.2118 C.2     
  10 C10           -4.4592     2.9857    -0.1178 C.ar    
  11 O11           -1.2749     3.1095    -0.8685 O.2     
  12 C12            1.1445     1.9254    -0.9769 C.3     
  13 C13            1.2935    -0.7217    -0.0329 C.ar    
  14 C14           -5.7722     3.0041    -0.5849 C.ar    
  15 C15           -6.3765     4.2067    -0.8900 C.ar    
  16 C16           -5.6816     5.3924    -0.7330 C.ar    
  17 C17           -4.3781     5.3801    -0.2703 C.ar    
  18 C18           -3.7658     4.1838     0.0439 C.ar    
  19 C19            1.4225    -1.9170    -0.7427 C.ar    
  20 C20            2.6343    -2.5759    -0.7633 C.ar    
  21 C21            3.7203    -2.0548    -0.0826 C.ar    
  22 C22            3.5992    -0.8708     0.6231 C.ar    
  23 C23            2.3948    -0.1987     0.6473 C.ar    
  24 C24            1.3457     1.5480    -2.4460 C.3     
  25 H25           -1.0307    -1.6669     0.8335 H       
  26 H26            1.0426     3.0072    -0.8904 H       
  27 H27            2.0048     1.5939    -0.3955 H       
  28 H28           -6.3156     2.0789    -0.7082 H       
  29 H29           -7.3938     4.2222    -1.2524 H       
  30 H30           -6.1584     6.3313    -0.9730 H       
  31 H31           -3.8401     6.3088    -0.1499 H       
  32 H32           -2.7482     4.1754     0.4055 H       
  33 H33            0.5754    -2.3251    -1.2741 H       
  34 H34            2.7354    -3.5009    -1.3116 H       
  35 H35            4.6668    -2.5746    -0.1020 H       
  36 H36            4.4507    -0.4698     1.1529 H       
  37 H37            2.3016     0.7253     1.1985 H       
  38 H38            2.2474     2.0294    -2.8245 H       
  39 H39            1.4476     0.4663    -2.5325 H       
  40 H40            0.4854     1.8796    -3.0274 H       
@<TRIPOS>BOND
   1    1    2 1
   2    1   12 1
   3    1    6 am
   4    2    3 2
   5    2   13 1
   6    3    4 1
   7    3   25 1
   8    4    5 2
   9    4    7 1
  10    5    6 1
  11    5    9 1
  12    6   11 2
  13    7    8 1
  14    8    9 2
  15    9   10 1
  16   10   14 ar
  17   10   18 ar
  18   12   24 1
  19   12   26 1
  20   12   27 1
  21   13   19 ar
  22   13   23 ar
  23   14   15 ar
  24   14   28 1
  25   15   16 ar
  26   15   29 1
  27   16   17 ar
  28   16   30 1
  29   17   18 ar
  30   17   31 1
  31   18   32 1
  32   19   20 ar
  33   19   33 1
  34   20   21 ar
  35   20   34 1
  36   21   22 ar
  37   21   35 1
  38   22   23 ar
  39   22   36 1
  40   23   37 1
  41   24   38 1
  42   24   39 1
  43   24   40 1

#	End of record

