#	Name: ASD01883610
#	Creating user name:	WinNT
#	Creation time:	15. 06. 2019 19:46

#	Modifying user name:	WinNT
#	Modification time:	15. 06. 2019 19:46

#	Program:	/corina/corina34_cracker 3.40 0067  02.08.2006

@<TRIPOS>MOLECULE
ASD01883610
  47   50    0    0    0
SMALL
NO_CHARGES


@<TRIPOS>ATOM
   1 C1            -0.4070     0.7384    -1.1126 C.2     
   2 C2             0.0021    -0.0041     0.0020 C.2     
   3 C3            -0.8269    -0.0436     1.1386 C.2     
   4 C4            -1.9990     0.6181     1.1664 C.2     
   5 N5            -2.4375     1.3532     0.1042 N.pl3   
   6 C6            -1.6865     1.4486    -1.0386 C.2     
   7 C7            -3.5720     2.0989    -0.1027 C.2     
   8 C8            -3.4873     2.6148    -1.3454 C.2     
   9 N9            -2.3371     2.2111    -1.8983 N.2     
  10 C10           -4.7001     2.3019     0.8756 C.3     
  11 N11            1.2030    -0.6889    -0.0141 N.pl3   
  12 C12           -5.8074     1.2838     0.5957 C.3     
  13 F13           -5.2964    -0.0111     0.7354 F       
  14 F14           -6.8547     1.4723     1.5039 F       
  15 F15           -6.2834     1.4592    -0.7080 F       
  16 C16            1.2305    -2.1543     0.0880 C.3     
  17 C17            2.1618    -2.5511     1.2378 C.3     
  18 C18            3.5346    -1.9102     1.0215 C.3     
  19 C19            3.3932    -0.3864     1.0183 C.3     
  20 C20            2.4756     0.0345    -0.1397 C.3     
  21 C21            4.4635    -2.3260     2.1329 C.ar    
  22 C22            5.6254    -3.0157     1.8410 C.ar    
  23 C23            6.4774    -3.3971     2.8605 C.ar    
  24 C24            6.1678    -3.0883     4.1719 C.ar    
  25 C25            5.0064    -2.3978     4.4638 C.ar    
  26 C26            4.1565    -2.0126     3.4438 C.ar    
  27 C27            0.4055     0.8066    -2.2898 C.1     
  28 N28            1.0500     0.8606    -3.2237 N.1     
  29 H29           -0.5180    -0.6142     2.0020 H       
  30 H30           -2.6099     0.5652     2.0554 H       
  31 H31           -4.2232     3.2506    -1.8152 H       
  32 H32           -4.3292     2.1653     1.8914 H       
  33 H33           -5.0982     3.3108     0.7668 H       
  34 H34            0.2253    -2.5257     0.2872 H       
  35 H35            1.6008    -2.5787    -0.8452 H       
  36 H36            1.7426    -2.2033     2.1820 H       
  37 H37            2.2666    -3.6358     1.2634 H       
  38 H38            3.9423    -2.2391     0.0656 H       
  39 H39            2.9625    -0.0590     1.9645 H       
  40 H40            4.3745     0.0697     0.8875 H       
  41 H41            2.9498    -0.2117    -1.0897 H       
  42 H42            2.2912     1.1076    -0.0883 H       
  43 H43            5.8672    -3.2569     0.8165 H       
  44 H44            7.3848    -3.9366     2.6326 H       
  45 H45            6.8332    -3.3869     4.9685 H       
  46 H46            4.7644    -2.1568     5.4883 H       
  47 H47            3.2491    -1.4731     3.6718 H       
@<TRIPOS>BOND
   1    1    2 2
   2    1   27 1
   3    1    6 1
   4    2    3 1
   5    2   11 1
   6    3    4 2
   7    3   29 1
   8    4    5 1
   9    4   30 1
  10    5    6 1
  11    5    7 1
  12    6    9 2
  13    7    8 2
  14    7   10 1
  15    8    9 1
  16    8   31 1
  17   10   12 1
  18   10   32 1
  19   10   33 1
  20   11   16 1
  21   11   20 1
  22   12   13 1
  23   12   14 1
  24   12   15 1
  25   16   17 1
  26   16   34 1
  27   16   35 1
  28   17   18 1
  29   17   36 1
  30   17   37 1
  31   18   19 1
  32   18   21 1
  33   18   38 1
  34   19   20 1
  35   19   39 1
  36   19   40 1
  37   20   41 1
  38   20   42 1
  39   21   22 ar
  40   21   26 ar
  41   22   23 ar
  42   22   43 1
  43   23   24 ar
  44   23   44 1
  45   24   25 ar
  46   24   45 1
  47   25   26 ar
  48   25   46 1
  49   26   47 1
  50   27   28 3

#	End of record

