#	Name: ASD01940458
#	Creating user name:	WinNT
#	Creation time:	15. 06. 2019 20:12

#	Modifying user name:	WinNT
#	Modification time:	15. 06. 2019 20:12

#	Program:	/corina/corina34_cracker 3.40 0067  02.08.2006

@<TRIPOS>MOLECULE
ASD01940458
  36   38    0    0    0
SMALL
NO_CHARGES


@<TRIPOS>ATOM
   1 C1             0.6036     0.4669    -1.4416 C.ar    
   2 C2            -0.0883    -0.0414    -0.3577 C.ar    
   3 C3             0.4478     0.0501     0.9154 C.ar    
   4 C4             1.6810     0.6518     1.1092 C.ar    
   5 C5             2.3804     1.1640     0.0245 C.ar    
   6 C6             1.8384     1.0706    -1.2563 C.ar    
   7 N7             2.5400     1.5854    -2.3547 N.am    
   8 S8             1.7177     2.0813    -3.7039 S.o2    
   9 C9             0.7933     3.5436    -3.1585 C.3     
  10 O10            2.7388     2.4502    -4.6207 O.2     
  11 O11            0.8308     1.0080    -3.9880 O.2     
  12 F12           -0.2327    -0.4478     1.9710 F       
  13 F13            2.2021     0.7404     2.3525 F       
  14 N14            3.6278     1.7737     0.2171 N.pl3   
  15 C15            4.8011     1.0351     0.0412 C.ar    
  16 C16            6.0321     1.5948     0.3657 C.ar    
  17 C17            4.7399    -0.2614    -0.4526 C.ar    
  18 C18            5.9014    -0.9890    -0.6253 C.ar    
  19 C19            7.1249    -0.4281    -0.3068 C.ar    
  20 C20            7.1898     0.8616     0.1905 C.ar    
  21 Cl21           6.1139     3.2128     0.9896 Cl      
  22 I22            8.8830    -1.5366    -0.5695 I       
  23 C23           -0.1737     4.1815    -4.1580 C.3     
  24 C24           -0.7169     3.3930    -2.9647 C.3     
  25 H25            0.1843     0.3897    -2.4338 H       
  26 H26           -1.0498    -0.5107    -0.5046 H       
  27 H27            3.5073     1.6512    -2.3247 H       
  28 H28            1.3245     4.2087    -2.4776 H       
  29 H29            3.6766     2.7082     0.4724 H       
  30 H30            3.7850    -0.7006    -0.7010 H       
  31 H31            5.8541    -1.9973    -1.0094 H       
  32 H32            8.1467     1.2969     0.4380 H       
  33 H33           -0.2789     5.2661    -4.1345 H       
  34 H34           -0.2543     3.7224    -5.1433 H       
  35 H35           -1.1550     2.4152    -3.1649 H       
  36 H36           -1.1795     3.9589    -2.1561 H       
@<TRIPOS>BOND
   1    1    2 ar
   2    1    6 ar
   3    1   25 1
   4    2    3 ar
   5    2   26 1
   6    3    4 ar
   7    3   12 1
   8    4    5 ar
   9    4   13 1
  10    5    6 ar
  11    5   14 1
  12    6    7 1
  13    7    8 am
  14    7   27 1
  15    8    9 1
  16    8   10 2
  17    8   11 2
  18    9   23 1
  19    9   24 1
  20    9   28 1
  21   14   15 1
  22   14   29 1
  23   15   16 ar
  24   15   17 ar
  25   16   21 1
  26   16   20 ar
  27   17   18 ar
  28   17   30 1
  29   18   19 ar
  30   18   31 1
  31   19   20 ar
  32   19   22 1
  33   20   32 1
  34   23   24 1
  35   23   33 1
  36   23   34 1
  37   24   35 1
  38   24   36 1

#	End of record

