#	Name: ASD01148524
#	Creating user name:	WinNT
#	Creation time:	15. 06. 2019 19:02

#	Modifying user name:	WinNT
#	Modification time:	15. 06. 2019 19:02

#	Program:	/corina/corina34_cracker 3.40 0067  02.08.2006

@<TRIPOS>MOLECULE
ASD01148524
  49   52    0    0    0
SMALL
NO_CHARGES


@<TRIPOS>ATOM
   1 C1            -0.0180     1.4357     0.0451 C.ar    
   2 C2            -0.0166     0.0527     0.0405 C.ar    
   3 C3             1.1837    -0.6377     0.0176 C.ar    
   4 C4             2.3796     0.0567    -0.0008 C.ar    
   5 C5             2.3764     1.4392     0.0038 C.ar    
   6 C6             1.1784     2.1282     0.0267 C.ar    
   7 C7             3.6798     2.1954    -0.0162 C.3     
   8 O8             4.6902     1.4630    -0.7388 O.3     
   9 C9             3.5589     3.4850    -0.8627 C.3     
  10 C10            4.0453     3.0315    -2.2260 C.2     
  11 N11            4.6592     1.9034    -2.0820 N.2     
  12 C12            3.8508     3.7524    -3.4957 C.ar    
  13 C13            4.3739     3.1996    -4.7426 C.ar    
  14 C14            3.1643     4.9585    -3.5160 C.ar    
  15 C15            2.9671     5.6568    -4.6942 C.ar    
  16 C16            3.4472     5.1812    -5.9065 C.ar    
  17 C17            4.1723     3.9138    -5.9474 C.ar    
  18 C18            3.2216     5.9474    -7.1458 C.2     
  19 O19            3.7335     5.5837    -8.1872 O.2     
  20 N20            2.4481     7.0509    -7.1245 N.am    
  21 C21            4.6739     3.3956    -7.1481 C.ar    
  22 C22            5.0672     1.9828    -4.7703 C.ar    
  23 C23            4.1463     2.5144     1.4056 C.3     
  24 F24            4.3128     1.3232     2.1201 F       
  25 F25            5.3641     3.2012     1.3537 F       
  26 F26            3.1887     3.3107     2.0429 F       
  27 Cl27           1.1872    -2.3736     0.0124 Cl      
  28 Cl28          -1.5186    -0.8174     0.0642 Cl      
  29 C29            2.2241     7.8122    -8.3560 C.3     
  30 C30            5.5382     1.5032    -5.9563 C.ar    
  31 C31            5.3446     2.2086    -7.1410 C.ar    
  32 C32            1.3175     9.0082    -8.0583 C.3     
  33 F33            1.9286     9.8310    -7.1061 F       
  34 F34            1.1035     9.7352    -9.2343 F       
  35 F35            0.0914     8.5520    -7.5624 F       
  36 H36           -0.9538     1.9747     0.0584 H       
  37 H37            3.3161    -0.4810    -0.0183 H       
  38 H38            1.1770     3.2082     0.0302 H       
  39 H39            2.5225     3.8190    -0.9131 H       
  40 H40            4.2008     4.2708    -0.4645 H       
  41 H41            2.7753     5.3606    -2.5922 H       
  42 H42            2.4275     6.5920    -4.6700 H       
  43 H43            2.0398     7.3410    -6.2939 H       
  44 H44            4.5300     3.9328    -8.0739 H       
  45 H45            5.2281     1.4283    -3.8576 H       
  46 H46            3.1793     8.1676    -8.7423 H       
  47 H47            1.7479     7.1711    -9.0979 H       
  48 H48            6.0726     0.5649    -5.9766 H       
  49 H49            5.7310     1.8099    -8.0673 H       
@<TRIPOS>BOND
   1    1    2 ar
   2    1    6 ar
   3    1   36 1
   4    2    3 ar
   5    2   28 1
   6    3    4 ar
   7    3   27 1
   8    4    5 ar
   9    4   37 1
  10    5    6 ar
  11    5    7 1
  12    6   38 1
  13    7    8 1
  14    7    9 1
  15    7   23 1
  16    8   11 1
  17    9   10 1
  18    9   39 1
  19    9   40 1
  20   10   11 2
  21   10   12 1
  22   12   13 ar
  23   12   14 ar
  24   13   22 ar
  25   13   17 ar
  26   14   15 ar
  27   14   41 1
  28   15   16 ar
  29   15   42 1
  30   16   17 ar
  31   16   18 1
  32   17   21 ar
  33   18   19 2
  34   18   20 am
  35   20   29 1
  36   20   43 1
  37   21   31 ar
  38   21   44 1
  39   22   30 ar
  40   22   45 1
  41   23   24 1
  42   23   25 1
  43   23   26 1
  44   29   32 1
  45   29   46 1
  46   29   47 1
  47   30   31 ar
  48   30   48 1
  49   31   49 1
  50   32   33 1
  51   32   34 1
  52   32   35 1

#	End of record

