#	Name: ASD01948352
#	Creating user name:	WinNT
#	Creation time:	15. 06. 2019 20:14

#	Modifying user name:	WinNT
#	Modification time:	15. 06. 2019 20:14

#	Program:	/corina/corina34_cracker 3.40 0067  02.08.2006

@<TRIPOS>MOLECULE
ASD01948352
  61   63    0    0    0
SMALL
NO_CHARGES


@<TRIPOS>ATOM
   1 C1             0.1368     1.3194    -0.7955 C.2     
   2 N2             0.1151    -0.0438    -0.8387 N.am    
   3 C3             1.2472    -0.7614    -0.7203 C.2     
   4 C4             2.5130     1.2666    -0.5045 C.2     
   5 C5             1.3021     1.9886    -0.6321 C.2     
   6 C6             2.9348     2.8327     1.7635 C.ar    
   7 C7             3.9117     2.7513     0.7808 C.ar    
   8 N8             3.7151     1.9331    -0.3371 N.pl3   
   9 C9             3.1311     3.6418     2.8663 C.ar    
  10 C10            4.2995     4.3713     2.9924 C.ar    
  11 C11            5.2766     4.2931     2.0153 C.ar    
  12 C12            5.0864     3.4855     0.9095 C.ar    
  13 N13            1.3096     3.3925    -0.5889 N.am    
  14 S14           -0.0832     4.2375    -0.8862 S.o2    
  15 C15           -0.3130     4.1141    -2.6814 C.3     
  16 O16            1.2010    -1.9816    -0.7619 O.2     
  17 C17           -1.1625    -0.7383    -1.0167 C.3     
  18 F18            6.0400     3.4089    -0.0444 F       
  19 Br19           4.5624     5.4780     4.5030 Br      
  20 O20           -1.0906     3.5042    -0.2030 O.2     
  21 O21            0.2306     5.5725    -0.5143 O.2     
  22 C22            2.4761    -0.1168    -0.5503 C.2     
  23 C23            3.7455    -0.9182    -0.4174 C.3     
  24 O24           -1.5767    -1.3005     0.2301 O.3     
  25 C25           -2.1602    -0.3551     1.1287 C.3     
  26 C26           -3.6523    -0.2130     0.8214 C.3     
  27 C27           -1.9800    -0.8412     2.5682 C.3     
  28 C28           -1.6361     4.7845    -3.0908 C.3     
  29 C29           -1.2693     5.9310    -4.0556 C.3     
  30 C30            0.1063     5.5153    -4.6337 C.3     
  31 C31            0.8118     4.8766    -3.4117 C.3     
  32 C32           -0.3154     2.6452    -3.1094 C.3     
  33 H33           -0.7859     1.8713    -0.8973 H       
  34 H34            2.0200     2.2673     1.6641 H       
  35 H35            4.4210     1.8328    -0.9948 H       
  36 H36            2.3709     3.7050     3.6309 H       
  37 H37            6.1879     4.8638     2.1164 H       
  38 H38            2.1306     3.8671    -0.3848 H       
  39 H39           -1.9153    -0.0308    -1.3642 H       
  40 H40           -1.0442    -1.5337    -1.7525 H       
  41 H41            3.5250    -1.9753    -0.5658 H       
  42 H42            4.4638    -0.5880    -1.1677 H       
  43 H43            4.1656    -0.7709     0.5775 H       
  44 H44           -1.6708     0.6113     1.0077 H       
  45 H45           -4.1418    -1.1794     0.9425 H       
  46 H46           -4.0974     0.5081     1.5069 H       
  47 H47           -3.7807     0.1333    -0.2041 H       
  48 H48           -0.9170    -0.9424     2.7871 H       
  49 H49           -2.4251    -0.1201     3.2537 H       
  50 H50           -2.4695    -1.8076     2.6893 H       
  51 H51           -2.2796     4.0636    -3.5951 H       
  52 H52           -2.1402     5.1840    -2.2108 H       
  53 H53           -2.0093     6.0110    -4.8518 H       
  54 H54           -1.1865     6.8734    -3.5142 H       
  55 H55           -0.0157     4.7857    -5.4343 H       
  56 H56            0.6571     6.3877    -4.9853 H       
  57 H57            1.2306     5.6487    -2.7664 H       
  58 H58            1.5904     4.1871    -3.7381 H       
  59 H59           -1.1365     2.1245    -2.6167 H       
  60 H60           -0.4414     2.5818    -4.1902 H       
  61 H61            0.6301     2.1827    -2.8261 H       
@<TRIPOS>BOND
   1    1    2 1
   2    1    5 2
   3    1   33 1
   4    2    3 am
   5    2   17 1
   6    3   22 1
   7    3   16 2
   8    4    5 1
   9    4    8 1
  10    4   22 2
  11    5   13 1
  12    6    7 ar
  13    6    9 ar
  14    6   34 1
  15    7    8 1
  16    7   12 ar
  17    8   35 1
  18    9   10 ar
  19    9   36 1
  20   10   11 ar
  21   10   19 1
  22   11   12 ar
  23   11   37 1
  24   12   18 1
  25   13   14 am
  26   13   38 1
  27   14   15 1
  28   14   20 2
  29   14   21 2
  30   15   28 1
  31   15   32 1
  32   15   31 1
  33   17   24 1
  34   17   39 1
  35   17   40 1
  36   22   23 1
  37   23   41 1
  38   23   42 1
  39   23   43 1
  40   24   25 1
  41   25   26 1
  42   25   27 1
  43   25   44 1
  44   26   45 1
  45   26   46 1
  46   26   47 1
  47   27   48 1
  48   27   49 1
  49   27   50 1
  50   28   29 1
  51   28   51 1
  52   28   52 1
  53   29   30 1
  54   29   53 1
  55   29   54 1
  56   30   31 1
  57   30   55 1
  58   30   56 1
  59   31   57 1
  60   31   58 1
  61   32   59 1
  62   32   60 1
  63   32   61 1

#	End of record

