#	Name: ASD02320012
#	Creating user name:	WinNT
#	Creation time:	15. 06. 2019 20:20

#	Modifying user name:	WinNT
#	Modification time:	15. 06. 2019 20:20

#	Program:	/corina/corina34_cracker 3.40 0067  02.08.2006

@<TRIPOS>MOLECULE
ASD02320012
  42   43    0    0    0
SMALL
NO_CHARGES


@<TRIPOS>ATOM
   1 C1            -0.0167     1.3812     0.0096 C.ar    
   2 C2             0.0021    -0.0041     0.0020 C.ar    
   3 C3             1.2065    -0.6887    -0.0127 C.ar    
   4 C4             2.4060     0.0142    -0.0203 C.ar    
   5 C5             2.3881     1.4173    -0.0131 C.ar    
   6 C6             1.1620     2.0937     0.0022 C.ar    
   7 C7             3.6261     3.5240    -0.0135 C.2     
   8 C8             3.6479     2.1720    -0.0206 C.2     
   9 C9             3.6373     6.4340     0.0010 C.ar    
  10 C10            4.8557     5.7512    -0.0133 C.ar    
  11 C11            4.8795     4.2749    -0.0210 C.2     
  12 C12            3.6220     7.8121     0.0077 C.ar    
  13 C13            4.8100     8.5243     0.0002 C.ar    
  14 C14            6.0218     7.8617    -0.0140 C.ar    
  15 C15            6.0560     6.4758    -0.0209 C.ar    
  16 O16            5.9439     3.6831    -0.0335 O.2     
  17 O17            1.2153    -2.0486    -0.0192 O.3     
  18 C18           -0.0536    -2.7057    -0.0102 C.3     
  19 O19            7.2456     5.8236    -0.0344 O.3     
  20 S20            7.8006     5.5194     1.3498 S.o2    
  21 O21            9.1192     5.0273     1.1542 O.2     
  22 O22            7.5050     6.6502     2.1580 O.2     
  23 O23            6.9897     4.3625     1.9161 O.3     
  24 Na24           7.4353     2.5948     1.1183 Du      
  25 O25            3.5882    -0.6534    -0.0343 O.3     
  26 S26            4.1145    -0.9512    -1.4310 S.o2    
  27 O27            5.2311    -1.8141    -1.2635 O.2     
  28 O28            2.9836    -1.2883    -2.2225 O.2     
  29 O29            4.6601     0.3532    -1.9945 O.3     
  30 Na30           6.4111     0.8988    -1.2223 Du      
  31 H31           -0.9609     1.9054     0.0169 H       
  32 H32           -0.9277    -0.5536     0.0079 H       
  33 H33            1.1407     3.1734     0.0079 H       
  34 H34            2.6823     4.0488    -0.0024 H       
  35 H35            4.5918     1.6472    -0.0317 H       
  36 H36            2.7086     5.8828     0.0024 H       
  37 H37            2.6793     8.3392     0.0184 H       
  38 H38            4.7886     9.6041     0.0055 H       
  39 H39            6.9439     8.4240    -0.0205 H       
  40 H40           -0.6209    -2.4124    -0.8934 H       
  41 H41            0.0963    -3.7854    -0.0167 H       
  42 H42           -0.6040    -2.4207     0.8864 H       
@<TRIPOS>BOND
   1    1    2 ar
   2    1    6 ar
   3    1   31 1
   4    2    3 ar
   5    2   32 1
   6    3    4 ar
   7    3   17 1
   8    4    5 ar
   9    4   25 1
  10    5    6 ar
  11    5    8 1
  12    6   33 1
  13    7    8 2
  14    7   11 1
  15    7   34 1
  16    8   35 1
  17    9   10 ar
  18    9   12 ar
  19    9   36 1
  20   10   11 1
  21   10   15 ar
  22   11   16 2
  23   12   13 ar
  24   12   37 1
  25   13   14 ar
  26   13   38 1
  27   14   15 ar
  28   14   39 1
  29   15   19 1
  30   17   18 1
  31   18   40 1
  32   18   41 1
  33   18   42 1
  34   19   20 1
  35   20   21 2
  36   20   22 2
  37   20   23 1
  38   23   24 1
  39   25   26 1
  40   26   27 2
  41   26   28 2
  42   26   29 1
  43   29   30 1

#	End of record

