#	Name: ASD01200358
#	Creating user name:	WinNT
#	Creation time:	15. 06. 2019 19:09

#	Modifying user name:	WinNT
#	Modification time:	15. 06. 2019 19:09

#	Program:	/corina/corina34_cracker 3.40 0067  02.08.2006

@<TRIPOS>MOLECULE
ASD01200358
  55   58    0    0    0
SMALL
NO_CHARGES


@<TRIPOS>ATOM
   1 C1             0.0084     1.5548     0.0795 C.2     
   2 C2             0.0119     0.2208     0.3066 C.2     
   3 C3             1.3362    -0.1760     0.5196 C.2     
   4 N4             2.1002     0.8817     0.4238 N.2     
   5 N5             1.2851     1.9868     0.1464 N.pl3   
   6 S6            -1.4019    -0.8305     0.3304 S.o2    
   7 O7            -1.0219    -1.9098     1.1729 O.2     
   8 O8            -2.4742     0.0324     0.6837 O.2     
   9 C9             1.7386     3.3675    -0.0384 C.3     
  10 C10            1.9326     3.6452    -1.5304 C.3     
  11 C11            0.7068     4.3140     0.5188 C.2     
  12 N12            0.7242     4.6355     1.8276 N.am    
  13 O13           -0.1394     4.7864    -0.2104 O.2     
  14 C14           -0.2868     5.4260     2.3628 C.2     
  15 N15           -1.2909     5.8992     1.6945 N.2     
  16 S16           -0.3892     5.9085     3.9998 S.3     
  17 C17           -1.8790     6.7850     3.6595 C.2     
  18 C18           -2.1617     6.6332     2.3632 C.2     
  19 C19            2.5428     5.0361    -1.7151 C.3     
  20 Cl20          -2.8184     7.6842     4.8096 Cl      
  21 C21           -1.5765    -1.3931    -1.3853 C.3     
  22 C22            3.9618     5.0537    -1.1387 C.3     
  23 C23            2.6056     5.3739    -3.2079 C.3     
  24 C24            3.2888     6.7321    -3.3874 C.3     
  25 O25            4.5919     6.6894    -2.8024 O.3     
  26 C26            4.5926     6.4243    -1.3982 C.3     
  27 C27           -2.8588    -2.2299    -1.5377 C.3     
  28 C28           -3.7441    -1.4962    -2.5662 C.3     
  29 C29           -2.7440    -0.6527    -3.3952 C.3     
  30 C30           -1.7273    -0.1802    -2.3265 C.3     
  31 H31           -0.8600     2.1638    -0.1236 H       
  32 H32            1.6702    -1.1818     0.7278 H       
  33 H33            2.6842     3.5123     0.4841 H       
  34 H34            2.6004     2.8961    -1.9556 H       
  35 H35            0.9681     3.6014    -2.0365 H       
  36 H36            1.4420     4.3154     2.3961 H       
  37 H37           -3.0322     7.0734     1.8999 H       
  38 H38            1.9292     5.7749    -1.1996 H       
  39 H39           -0.7079    -1.9850    -1.6741 H       
  40 H40            3.9213     4.8687    -0.0653 H       
  41 H41            4.5602     4.2803    -1.6202 H       
  42 H42            3.1766     4.6069    -3.7312 H       
  43 H43            1.5951     5.4179    -3.6143 H       
  44 H44            3.3747     6.9581    -4.4503 H       
  45 H45            2.6958     7.5048    -2.8981 H       
  46 H46            4.0167     7.1930    -0.8829 H       
  47 H47            5.6178     6.4286    -1.0280 H       
  48 H48           -2.6126    -3.2275    -1.9013 H       
  49 H49           -3.3762    -2.2979    -0.5808 H       
  50 H50           -4.2603    -2.2127    -3.2051 H       
  51 H51           -4.4608    -0.8495    -2.0600 H       
  52 H52           -2.2533    -1.2672    -4.1501 H       
  53 H53           -3.2452     0.1990    -3.8549 H       
  54 H54           -2.1183     0.6791    -1.7816 H       
  55 H55           -0.7717     0.0638    -2.7905 H       
@<TRIPOS>BOND
   1    1    2 2
   2    1    5 1
   3    1   31 1
   4    2    3 1
   5    2    6 1
   6    3    4 2
   7    3   32 1
   8    4    5 1
   9    5    9 1
  10    6    7 2
  11    6    8 2
  12    6   21 1
  13    9   10 1
  14    9   11 1
  15    9   33 1
  16   10   19 1
  17   10   34 1
  18   10   35 1
  19   11   12 am
  20   11   13 2
  21   12   14 1
  22   12   36 1
  23   14   16 1
  24   14   15 2
  25   15   18 1
  26   16   17 1
  27   17   18 2
  28   17   20 1
  29   18   37 1
  30   19   23 1
  31   19   22 1
  32   19   38 1
  33   21   27 1
  34   21   30 1
  35   21   39 1
  36   22   26 1
  37   22   40 1
  38   22   41 1
  39   23   24 1
  40   23   42 1
  41   23   43 1
  42   24   25 1
  43   24   44 1
  44   24   45 1
  45   25   26 1
  46   26   46 1
  47   26   47 1
  48   27   28 1
  49   27   48 1
  50   27   49 1
  51   28   29 1
  52   28   50 1
  53   28   51 1
  54   29   30 1
  55   29   52 1
  56   29   53 1
  57   30   54 1
  58   30   55 1

#	End of record

