#	Name: ASD03091032
#	Creating user name:	WinNT
#	Creation time:	15. 06. 2019 20:29

#	Modifying user name:	WinNT
#	Modification time:	15. 06. 2019 20:29

#	Program:	/corina/corina34_cracker 3.40 0067  02.08.2006

@<TRIPOS>MOLECULE
ASD03091032
  48   52    0    0    0
SMALL
NO_CHARGES


@<TRIPOS>ATOM
   1 N1             0.0208     1.3820     0.0753 N.am    
   2 C2             0.0185    -0.0049     0.0306 C.2     
   3 N3             0.9415    -0.6991    -0.5584 N.2     
   4 C4             2.0580    -0.2334    -1.1750 C.ar    
   5 C5             2.4822     1.0903    -0.9993 C.ar    
   6 S6             1.5194     2.1216     0.0686 S.o2    
   7 O7             1.3629     3.3705    -0.5909 O.2     
   8 C8             2.8085    -1.0754    -2.0049 C.ar    
   9 C9             3.9365    -0.5965    -2.6334 C.ar    
  10 C10            4.3407     0.7215    -2.4534 C.ar    
  11 C11            3.6024     1.5666    -1.6284 C.ar    
  12 N12            5.4856     1.1973    -3.0985 N.3     
  13 C13            6.6682     1.0687    -2.2355 C.3     
  14 C14            5.3072     2.5895    -3.5279 C.3     
  15 C15            6.4513     3.0768    -4.4033 C.3     
  16 N16            7.7194     3.0591    -3.6584 N.3     
  17 C17            7.6408     3.3922    -2.2522 C.3     
  18 C18            6.8596     2.3582    -1.4582 C.3     
  19 C19            7.8845     0.6698    -3.0578 C.3     
  20 C20            8.4318     1.7979    -3.9086 C.3     
  21 C21           -1.0865    -0.7235     0.6849 C.2     
  22 O22            2.0572     1.9815     1.3764 O.2     
  23 N23           -2.0839    -0.1665     1.3149 N.2     
  24 S24           -1.2789    -2.4740     0.7365 S.3     
  25 C25           -2.7662    -2.2777     1.6618 C.2     
  26 C26           -2.9792    -0.9648     1.8380 C.2     
  27 C27           -3.6486    -3.3915     2.1636 C.3     
  28 H28           -0.8024     1.8942     0.1046 H       
  29 H29            2.5029    -2.1008    -2.1518 H       
  30 H30            4.5122    -1.2506    -3.2714 H       
  31 H31            3.9113     2.5915    -1.4850 H       
  32 H32            6.4735     0.2765    -1.5127 H       
  33 H33            4.3755     2.6696    -4.0878 H       
  34 H34            5.2424     3.2256    -2.6452 H       
  35 H35            6.5379     2.4282    -5.2751 H       
  36 H36            6.2427     4.0946    -4.7331 H       
  37 H37            8.6508     3.4593    -1.8478 H       
  38 H38            7.1541     4.3617    -2.1453 H       
  39 H39            5.8817     2.7690    -1.2072 H       
  40 H40            7.3975     2.1393    -0.5358 H       
  41 H41            8.6683     0.3309    -2.3804 H       
  42 H42            7.6085    -0.1582    -3.7108 H       
  43 H43            8.3275     1.5330    -4.9608 H       
  44 H44            9.4889     1.9350    -3.6806 H       
  45 H45           -3.8351    -0.5902     2.3797 H       
  46 H46           -3.2262    -4.3515     1.8667 H       
  47 H47           -3.7121    -3.3430     3.2506 H       
  48 H48           -4.6458    -3.2856     1.7363 H       
@<TRIPOS>BOND
   1    1    2 1
   2    1    6 am
   3    1   28 1
   4    2    3 2
   5    2   21 1
   6    3    4 1
   7    4    5 ar
   8    4    8 ar
   9    5    6 1
  10    5   11 ar
  11    6    7 2
  12    6   22 2
  13    8    9 ar
  14    8   29 1
  15    9   10 ar
  16    9   30 1
  17   10   11 ar
  18   10   12 1
  19   11   31 1
  20   12   14 1
  21   12   13 1
  22   13   19 1
  23   13   18 1
  24   13   32 1
  25   14   15 1
  26   14   33 1
  27   14   34 1
  28   15   16 1
  29   15   35 1
  30   15   36 1
  31   16   17 1
  32   16   20 1
  33   17   18 1
  34   17   37 1
  35   17   38 1
  36   18   39 1
  37   18   40 1
  38   19   20 1
  39   19   41 1
  40   19   42 1
  41   20   43 1
  42   20   44 1
  43   21   23 2
  44   21   24 1
  45   23   26 1
  46   24   25 1
  47   25   26 2
  48   25   27 1
  49   26   45 1
  50   27   46 1
  51   27   47 1
  52   27   48 1

#	End of record

