#	Name: ASD02508303
#	Creating user name:	WinNT
#	Creation time:	15. 06. 2019 20:24

#	Modifying user name:	WinNT
#	Modification time:	15. 06. 2019 20:24

#	Program:	/corina/corina34_cracker 3.40 0067  02.08.2006

@<TRIPOS>MOLECULE
ASD02508303
  43   46    0    0    0
SMALL
NO_CHARGES


@<TRIPOS>ATOM
   1 C1            -0.0166     1.3764     0.0096 C.ar    
   2 C2             0.0021    -0.0041     0.0020 C.ar    
   3 C3            -1.1881    -0.7112     0.0100 C.ar    
   4 C4            -2.3942    -0.0377     0.0251 C.ar    
   5 C5            -2.4129     1.3447     0.0327 C.ar    
   6 C6            -1.2256     2.0509     0.0299 C.ar    
   7 C7             1.4034     1.8833    -0.0012 C.3     
   8 N8             2.2927     0.7175    -0.0160 N.am    
   9 C9             1.4353    -0.4720    -0.0142 C.3     
  10 S10            3.9485     0.7400    -0.0322 S.o2    
  11 O11            4.3097    -0.4889    -0.6473 O.2     
  12 O12            4.2762     1.9848    -0.6342 O.2     
  13 C13            4.4184     0.7372     1.7199 C.3     
  14 S14           -3.9503     2.2053     0.0519 S.o2    
  15 O15           -3.6952     3.4948    -0.4881 O.2     
  16 O16           -4.9161     1.3138    -0.4882 O.2     
  17 C17           -4.3894     2.4511     1.7405 C.ar    
  18 C18           -3.9764     3.5922     2.4016 C.ar    
  19 C19           -4.3200     3.7879     3.7311 C.ar    
  20 C20           -5.0836     2.8352     4.3949 C.ar    
  21 C21           -5.4942     1.6918     3.7258 C.ar    
  22 C22           -5.1514     1.5046     2.4001 C.ar    
  23 O23           -3.8993     4.9128     4.3714 O.3     
  24 C24           -4.5750     5.2522     5.5871 C.3     
  25 C25           -4.6954     3.9827     6.4409 C.3     
  26 O26           -5.4386     3.0110     5.6971 O.3     
  27 H27           -1.1737    -1.7911     0.0041 H       
  28 H28           -3.3218    -0.5906     0.0306 H       
  29 H29           -1.2405     3.1307     0.0362 H       
  30 H30            1.5728     2.4885    -0.8918 H       
  31 H31            1.5899     2.4789     0.8924 H       
  32 H32            1.6380    -1.0722     0.8728 H       
  33 H33            1.6210    -1.0627    -0.9113 H       
  34 H34            4.0283    -0.1607     2.1992 H       
  35 H35            5.5050     0.7514     1.8047 H       
  36 H36            4.0042     1.6190     2.2086 H       
  37 H37           -3.3851     4.3321     1.8827 H       
  38 H38           -6.0856     0.9487     4.2401 H       
  39 H39           -5.4721     0.6136     1.8810 H       
  40 H40           -4.0025     6.0059     6.1278 H       
  41 H41           -5.5689     5.6379     5.3599 H       
  42 H42           -3.7017     3.5939     6.6636 H       
  43 H43           -5.2174     4.2125     7.3698 H       
@<TRIPOS>BOND
   1    1    2 ar
   2    1    7 1
   3    1    6 ar
   4    2    3 ar
   5    2    9 1
   6    3    4 ar
   7    3   27 1
   8    4    5 ar
   9    4   28 1
  10    5    6 ar
  11    5   14 1
  12    6   29 1
  13    7    8 1
  14    7   30 1
  15    7   31 1
  16    8    9 1
  17    8   10 am
  18    9   32 1
  19    9   33 1
  20   10   11 2
  21   10   12 2
  22   10   13 1
  23   13   34 1
  24   13   35 1
  25   13   36 1
  26   14   15 2
  27   14   16 2
  28   14   17 1
  29   17   18 ar
  30   17   22 ar
  31   18   19 ar
  32   18   37 1
  33   19   20 ar
  34   19   23 1
  35   20   21 ar
  36   20   26 1
  37   21   22 ar
  38   21   38 1
  39   22   39 1
  40   23   24 1
  41   24   25 1
  42   24   40 1
  43   24   41 1
  44   25   26 1
  45   25   42 1
  46   25   43 1

#	End of record

