#	Name: ASD01814703
#	Creating user name:	WinNT
#	Creation time:	15. 06. 2019 19:32

#	Modifying user name:	WinNT
#	Modification time:	15. 06. 2019 19:32

#	Program:	/corina/corina34_cracker 3.40 0067  02.08.2006

@<TRIPOS>MOLECULE
ASD01814703
  68   73    0    0    0
SMALL
NO_CHARGES


@<TRIPOS>ATOM
   1 C1            -0.0178     1.4648     0.0101 C.3     
   2 N2             0.0021    -0.0041     0.0020 N.3     
   3 C3             0.4358    -0.5154    -1.2985 C.3     
   4 N4             0.5143    -1.9765    -1.2955 N.am    
   5 C5             0.0811    -2.7397    -2.4686 C.3     
   6 H6            -0.2668    -2.0532    -3.2405 H       
   7 C7             1.2561    -3.5587    -3.0066 C.3     
   8 C8             0.8037    -4.3558    -4.2317 C.3     
   9 C9            -0.3353    -5.2973    -3.8355 C.3     
  10 C10           -1.5103    -4.4783    -3.2975 C.3     
  11 C11           -1.0579    -3.6812    -2.0724 C.3     
  12 H12           -0.7099    -4.3677    -1.3005 H       
  13 O13           -2.1553    -2.9163    -1.5699 O.3     
  14 C14            0.9895    -2.6188    -0.2039 C.2     
  15 O15            1.1918    -3.8179    -0.2155 O.2     
  16 C16            1.2538    -1.8092     1.0019 C.ar    
  17 C17            1.9810    -2.3221     2.0726 C.ar    
  18 C18            2.2306    -1.5247     3.1687 C.ar    
  19 C19            3.0158    -2.0769     4.3304 C.3     
  20 C20            2.0650    -2.6002     5.3759 C.ar    
  21 C21            1.6014    -1.7644     6.3824 C.ar    
  22 C22            0.7295    -2.2838     7.3232 C.ar    
  23 C23            0.3490    -3.6208     7.2283 C.ar    
  24 N24            0.8152    -4.3866     6.2502 N.ar    
  25 C25            1.6419    -3.9155     5.3384 C.ar    
  26 C26           -0.5845    -4.1927     8.2291 C.2     
  27 C27           -1.1645    -3.5067     9.3148 C.2     
  28 N28           -1.9257    -4.3463     9.9647 N.2     
  29 N29           -1.8628    -5.5906     9.3261 N.pl3   
  30 C30           -2.5716    -6.8044     9.7391 C.3     
  31 C31           -1.0429    -5.4783     8.2631 C.2     
  32 C32            1.7654    -0.2164     3.2121 C.ar    
  33 C33            1.9250     0.8386     4.2873 C.3     
  34 C34            1.5919     2.1765     3.5941 C.3     
  35 C35            0.6494     1.7327     2.4554 C.3     
  36 C36            1.0332     0.2984     2.1606 C.ar    
  37 C37            0.7610    -0.4963     1.0521 C.ar    
  38 H38            1.0021     1.8416     0.0865 H       
  39 H39           -0.4708     1.8271    -0.9128 H       
  40 H40           -0.5996     1.8156     0.8625 H       
  41 H41           -0.2744    -0.1977    -2.0618 H       
  42 H42            1.4181    -0.1057    -1.5336 H       
  43 H43            2.0676    -2.8879    -3.2889 H       
  44 H44            1.6041    -4.2452    -2.2347 H       
  45 H45            0.4558    -3.6693    -5.0036 H       
  46 H46            1.6408    -4.9393    -4.6150 H       
  47 H47           -0.6576    -5.8651    -4.7083 H       
  48 H48            0.0127    -5.9838    -3.0636 H       
  49 H49           -1.8583    -3.7918    -4.0694 H       
  50 H50           -2.3217    -5.1491    -3.0152 H       
  51 H51           -2.9150    -3.4495    -1.2988 H       
  52 H52            2.3467    -3.3380     2.0447 H       
  53 H53            3.6564    -2.8876     3.9835 H       
  54 H54            3.6309    -1.2869     4.7615 H       
  55 H55            1.9143    -0.7319     6.4304 H       
  56 H56            0.3496    -1.6615     8.1200 H       
  57 H57            1.9971    -4.5671     4.5537 H       
  58 H58           -1.0070    -2.4682     9.5659 H       
  59 H59           -3.5446    -6.8414     9.2493 H       
  60 H60           -1.9883    -7.6803     9.4550 H       
  61 H61           -2.7092    -6.7946    10.8203 H       
  62 H62           -0.7916    -6.2636     7.5656 H       
  63 H63            1.2290     0.6530     5.1054 H       
  64 H64            2.9502     0.8493     4.6573 H       
  65 H65            1.0800     2.8515     4.2800 H       
  66 H66            2.4931     2.6400     3.1929 H       
  67 H67           -0.3893     1.7871     2.7813 H       
  68 H68            0.8030     2.3543     1.5733 H       
@<TRIPOS>BOND
   1    1    2 1
   2    1   38 1
   3    1   39 1
   4    1   40 1
   5    2   37 1
   6    2    3 1
   7    3    4 1
   8    3   41 1
   9    3   42 1
  10    4    5 1
  11    4   14 am
  12    5    6 1
  13    5   11 1
  14    5    7 1
  15    7    8 1
  16    7   43 1
  17    7   44 1
  18    8    9 1
  19    8   45 1
  20    8   46 1
  21    9   10 1
  22    9   47 1
  23    9   48 1
  24   10   11 1
  25   10   49 1
  26   10   50 1
  27   11   12 1
  28   11   13 1
  29   13   51 1
  30   14   15 2
  31   14   16 1
  32   16   37 ar
  33   16   17 ar
  34   17   18 ar
  35   17   52 1
  36   18   19 1
  37   18   32 ar
  38   19   20 1
  39   19   53 1
  40   19   54 1
  41   20   25 ar
  42   20   21 ar
  43   21   22 ar
  44   21   55 1
  45   22   23 ar
  46   22   56 1
  47   23   24 ar
  48   23   26 1
  49   24   25 ar
  50   25   57 1
  51   26   31 2
  52   26   27 1
  53   27   28 2
  54   27   58 1
  55   28   29 1
  56   29   30 1
  57   29   31 1
  58   30   59 1
  59   30   60 1
  60   30   61 1
  61   31   62 1
  62   32   36 ar
  63   32   33 1
  64   33   34 1
  65   33   63 1
  66   33   64 1
  67   34   35 1
  68   34   65 1
  69   34   66 1
  70   35   36 1
  71   35   67 1
  72   35   68 1
  73   36   37 ar

#	End of record

