#	Name: ASD01028364
#	Creating user name:	WinNT
#	Creation time:	15. 06. 2019 18:57

#	Modifying user name:	WinNT
#	Modification time:	15. 06. 2019 18:57

#	Program:	/corina/corina34_cracker 3.40 0067  02.08.2006

@<TRIPOS>MOLECULE
ASD01028364
  46   50    0    0    0
SMALL
NO_CHARGES


@<TRIPOS>ATOM
   1 C1            -0.0171     1.4105     0.0098 C.ar    
   2 C2             0.0021    -0.0041     0.0020 C.ar    
   3 C3             1.2172     2.1062     0.0017 C.ar    
   4 C4             2.3840     1.3600    -0.0135 C.ar    
   5 C5             2.3156    -0.0268    -0.0203 C.ar    
   6 N6             1.1664    -0.6615    -0.0123 N.ar    
   7 N7             1.2559     3.4929     0.0084 N.pl3   
   8 C8             2.5445     4.1898    -0.0001 C.3     
   9 C9             2.3106     5.6785     0.0096 C.2     
  10 N10            2.1971     6.4605     1.1053 N.pl3   
  11 C11            1.9929     7.7379     0.6401 C.2     
  12 N12            1.9927     7.6686    -0.6811 N.2     
  13 N13            2.1864     6.4484    -1.0428 N.2     
  14 N14            2.2470     6.2153     2.4790 N.2     
  15 C15            2.0998     7.2000     3.3378 C.2     
  16 C16            1.8887     8.5220     2.8914 C.2     
  17 C17            1.8360     8.7917     1.5604 C.2     
  18 C18            2.1557     6.9180     4.7930 C.ar    
  19 C19            2.3632     5.6160     5.2446 C.ar    
  20 C20            2.4152     5.3570     6.6010 C.ar    
  21 C21            2.2611     6.3910     7.5126 C.ar    
  22 C22            2.0540     7.6879     7.0667 C.ar    
  23 C23            2.0066     7.9552     5.7117 C.ar    
  24 C24           -1.2223    -0.6977     0.0101 C.ar    
  25 C25           -2.3811     0.0331     0.0251 C.ar    
  26 C26           -2.3227     1.4307     0.0320 C.ar    
  27 N27           -1.1775     2.0678     0.0299 N.ar    
  28 O28           -3.5841    -0.5981     0.0329 O.3     
  29 C29           -4.7501     0.2280     0.0486 C.3     
  30 F30            2.3125     6.1341     8.8380 F       
  31 F31            1.9040     8.6920     7.9581 F       
  32 F32            2.6159     4.0951     7.0397 F       
  33 H33            3.3437     1.8552    -0.0203 H       
  34 H34            3.2319    -0.5984    -0.0326 H       
  35 H35            0.4298     4.0012     0.0188 H       
  36 H36            3.1169     3.9062     0.8831 H       
  37 H37            3.1002     3.9152    -0.8968 H       
  38 H38            1.7694     9.3207     3.6085 H       
  39 H39            1.6745     9.8015     1.2130 H       
  40 H40            2.4829     4.8104     4.5354 H       
  41 H41            1.8456     8.9654     5.3652 H       
  42 H42           -1.2479    -1.7774     0.0042 H       
  43 H43           -3.2420     1.9974     0.0439 H       
  44 H44           -5.6406    -0.4006     0.0534 H       
  45 H45           -4.7411     0.8522     0.9420 H       
  46 H46           -4.7579     0.8623    -0.8378 H       
@<TRIPOS>BOND
   1    1    2 ar
   2    1    3 ar
   3    1   27 ar
   4    2   24 ar
   5    2    6 ar
   6    3    4 ar
   7    3    7 1
   8    4    5 ar
   9    4   33 1
  10    5    6 ar
  11    5   34 1
  12    7    8 1
  13    7   35 1
  14    8    9 1
  15    8   36 1
  16    8   37 1
  17    9   10 1
  18    9   13 2
  19   10   11 1
  20   10   14 1
  21   11   12 2
  22   11   17 1
  23   12   13 1
  24   14   15 2
  25   15   16 1
  26   15   18 1
  27   16   17 2
  28   16   38 1
  29   17   39 1
  30   18   19 ar
  31   18   23 ar
  32   19   20 ar
  33   19   40 1
  34   20   21 ar
  35   20   32 1
  36   21   22 ar
  37   21   30 1
  38   22   23 ar
  39   22   31 1
  40   23   41 1
  41   24   25 ar
  42   24   42 1
  43   25   26 ar
  44   25   28 1
  45   26   27 ar
  46   26   43 1
  47   28   29 1
  48   29   44 1
  49   29   45 1
  50   29   46 1

#	End of record

