#	Name: ASD02198682
#	Creating user name:	WinNT
#	Creation time:	15. 06. 2019 20:20

#	Modifying user name:	WinNT
#	Modification time:	15. 06. 2019 20:20

#	Program:	/corina/corina34_cracker 3.40 0067  02.08.2006

@<TRIPOS>MOLECULE
ASD02198682
  50   54    0    0    0
SMALL
NO_CHARGES


@<TRIPOS>ATOM
   1 F1             2.2529    -1.7074     2.4716 F       
   2 C2            -0.0432     1.5015    -0.1152 C.2     
   3 C3            -0.0730     0.1619     0.0972 C.2     
   4 N4             1.0716    -0.5398     0.2601 N.pl3   
   5 N5             2.2360    -0.0050     0.2265 N.2     
   6 C6             2.4076     1.2843     0.0280 C.2     
   7 C7             1.2217     2.1355    -0.1606 C.2     
   8 C8             0.9801    -1.9176     0.4764 C.ar    
   9 C9             1.5815    -2.4869     1.5959 C.ar    
  10 C10            1.4921    -3.8473     1.8110 C.ar    
  11 C11            0.7980    -4.6510     0.9052 C.ar    
  12 C12            0.1961    -4.0760    -0.2160 C.ar    
  13 C13            0.2841    -2.7167    -0.4236 C.ar    
  14 C14            3.7646     1.8665    -0.0041 C.2     
  15 N15            4.3070     2.6064    -1.0171 N.pl3   
  16 N16            5.6086     2.9584    -0.6386 N.2     
  17 C17            5.8517     2.4593     0.5471 C.2     
  18 C18            4.7198     1.7712     0.9841 C.2     
  19 C19            3.6747     2.9504    -2.2186 C.ar    
  20 C20            3.8085     4.2335    -2.7327 C.ar    
  21 C21            3.1842     4.5695    -3.9180 C.ar    
  22 C22            2.4264     3.6298    -4.5926 C.ar    
  23 C23            2.2909     2.3514    -4.0830 C.ar    
  24 C24            2.9174     2.0075    -2.9012 C.ar    
  25 O25            1.3248     3.3385    -0.3488 O.2     
  26 C26            0.7007    -6.1077     1.1319 C.2     
  27 C27            0.0362    -6.5444     2.1817 C.2     
  28 C28            1.3588    -7.0403     0.1523 C.3     
  29 C29            1.4937    -8.4308     0.7789 C.3     
  30 O30            0.2332    -8.7921     1.3563 O.3     
  31 C31           -0.1090    -8.0062     2.4981 C.3     
  32 H32           -0.9546     2.0651    -0.2498 H       
  33 H33           -1.0228    -0.3506     0.1372 H       
  34 H34            1.9589    -4.2894     2.6788 H       
  35 H35           -0.3412    -4.6960    -0.9183 H       
  36 H36           -0.1816    -2.2724    -1.2909 H       
  37 H37            6.7749     2.5656     1.0973 H       
  38 H38            4.6136     1.2517     1.9250 H       
  39 H39            4.3999     4.9679    -2.2061 H       
  40 H40            3.2876     5.5672    -4.3182 H       
  41 H41            1.9392     3.8950    -5.5192 H       
  42 H42            1.6981     1.6199    -4.6120 H       
  43 H43            2.8114     1.0089    -2.5038 H       
  44 H44           -0.4224    -5.8231     2.8418 H       
  45 H45            0.7514    -7.1062    -0.7504 H       
  46 H46            2.3478    -6.6597    -0.1030 H       
  47 H47            1.7654    -9.1543     0.0102 H       
  48 H48            2.2595    -8.4106     1.5543 H       
  49 H49            0.5534    -8.2625     3.3249 H       
  50 H50           -1.1396    -8.2150     2.7850 H       
@<TRIPOS>BOND
   1    1    9 1
   2    2    3 2
   3    2    7 1
   4    2   32 1
   5    3    4 1
   6    3   33 1
   7    4    5 1
   8    4    8 1
   9    5    6 2
  10    6    7 1
  11    6   14 1
  12    7   25 2
  13    8    9 ar
  14    8   13 ar
  15    9   10 ar
  16   10   11 ar
  17   10   34 1
  18   11   12 ar
  19   11   26 1
  20   12   13 ar
  21   12   35 1
  22   13   36 1
  23   14   15 1
  24   14   18 2
  25   15   16 1
  26   15   19 1
  27   16   17 2
  28   17   18 1
  29   17   37 1
  30   18   38 1
  31   19   20 ar
  32   19   24 ar
  33   20   21 ar
  34   20   39 1
  35   21   22 ar
  36   21   40 1
  37   22   23 ar
  38   22   41 1
  39   23   24 ar
  40   23   42 1
  41   24   43 1
  42   26   28 1
  43   26   27 2
  44   27   31 1
  45   27   44 1
  46   28   29 1
  47   28   45 1
  48   28   46 1
  49   29   30 1
  50   29   47 1
  51   29   48 1
  52   30   31 1
  53   31   49 1
  54   31   50 1

#	End of record

