#	Name: ASD02500504
#	Creating user name:	WinNT
#	Creation time:	15. 06. 2019 20:22

#	Modifying user name:	WinNT
#	Modification time:	15. 06. 2019 20:22

#	Program:	/corina/corina34_cracker 3.40 0067  02.08.2006

@<TRIPOS>MOLECULE
ASD02500504
  77   81    0    0    0
SMALL
NO_CHARGES


@<TRIPOS>ATOM
   1 N1             0.7868     2.1681     2.1597 N.ar    
   2 C2             1.5805     1.5749     3.0179 C.ar    
   3 C3             2.7751     0.9781     2.6205 C.ar    
   4 C4             3.1446     1.0017     1.3059 C.ar    
   5 C5             2.2896     1.6392     0.3870 C.ar    
   6 C6             2.6029     1.7039    -0.9799 C.ar    
   7 C7             1.7498     2.3299    -1.8370 C.ar    
   8 C8             0.5694     2.9081    -1.3754 C.ar    
   9 C9             0.2345     2.8640    -0.0569 C.ar    
  10 C10            1.0894     2.2266     0.8589 C.ar    
  11 S11           -1.2645     3.6039     0.5000 S.o2    
  12 O12           -0.9219     4.4125     1.6172 O.2     
  13 O13           -1.9152     4.1119    -0.6566 O.2     
  14 N14           -2.2257     2.3869     1.0808 N.am    
  15 C15           -2.6473     1.3691     0.2325 C.ar    
  16 C16           -2.5635     0.0420     0.6446 C.ar    
  17 C17           -2.9799    -0.9676    -0.1926 C.ar    
  18 C18           -3.4877    -0.6594    -1.4581 C.ar    
  19 C19           -3.5706     0.6742    -1.8690 C.ar    
  20 C20           -3.1578     1.6796    -1.0249 C.ar    
  21 C21           -3.9345    -1.7393    -2.3584 C.2     
  22 O22           -4.9416    -1.5975    -3.0249 O.2     
  23 N23           -3.2266    -2.8831    -2.4420 N.am    
  24 C24           -3.6197    -3.8574    -3.3772 C.3     
  25 C25           -3.9346    -5.1976    -2.6650 C.3     
  26 N26           -2.6872    -5.7912    -2.2289 N.3     
  27 C27           -2.2944    -5.4819    -0.8384 C.3     
  28 C28           -2.4994    -4.0170    -0.4559 C.3     
  29 C29           -2.0615    -3.0665    -1.5527 C.3     
  30 C30           -2.6823    -7.2407    -2.4673 C.3     
  31 C31           -2.7063    -7.5059    -3.9506 C.ar    
  32 C32           -1.5345    -7.4152    -4.6927 C.ar    
  33 C33           -1.5614    -7.6606    -6.0602 C.ar    
  34 C34           -2.7514    -7.9934    -6.6770 C.ar    
  35 C35           -3.9152    -8.0826    -5.9355 C.ar    
  36 C36           -3.8911    -7.8446    -4.5731 C.ar    
  37 S37           -0.0188    -6.9897    -3.9015 S.3     
  38 C38            1.2023    -7.1806    -5.2293 C.3     
  39 C39            0.9138    -6.1656    -6.3372 C.3     
  40 C40            2.6059    -6.9398    -4.6699 C.3     
  41 C41            1.1171    -8.5973    -5.8007 C.3     
  42 H42            1.3011     1.5485     4.0608 H       
  43 H43            3.4085     0.4975     3.3514 H       
  44 H44            4.0673     0.5444     0.9804 H       
  45 H45            3.5155     1.2600    -1.3496 H       
  46 H46            1.9917     2.3792    -2.8884 H       
  47 H47           -0.0905     3.3996    -2.0750 H       
  48 H48           -2.4946     2.3841     2.0128 H       
  49 H49           -2.1708    -0.1955     1.6223 H       
  50 H50           -2.9143    -1.9970     0.1275 H       
  51 H51           -3.9621     0.9155    -2.8462 H       
  52 H52           -3.2260     2.7104    -1.3399 H       
  53 H53           -4.5094    -3.5123    -3.9039 H       
  54 H54           -2.8146    -4.0123    -4.0954 H       
  55 H55           -4.5734    -5.0120    -1.8015 H       
  56 H56           -4.4380    -5.8712    -3.3584 H       
  57 H57           -2.8821    -6.1040    -0.1635 H       
  58 H58           -1.2412    -5.7317    -0.7099 H       
  59 H59           -3.5560    -3.8520    -0.2452 H       
  60 H60           -1.9244    -3.8039     0.4453 H       
  61 H61           -1.2308    -3.4976    -2.1114 H       
  62 H62           -1.7660    -2.1090    -1.1238 H       
  63 H63           -1.7820    -7.6770    -2.0348 H       
  64 H64           -3.5617    -7.6881    -2.0040 H       
  65 H65           -0.6529    -7.5907    -6.6400 H       
  66 H66           -2.7731    -8.1838    -7.7399 H       
  67 H67           -4.8444    -8.3427    -6.4206 H       
  68 H68           -4.8011    -7.9199    -3.9963 H       
  69 H69            1.2133    -5.1713    -6.0061 H       
  70 H70            1.4750    -6.4350    -7.2319 H       
  71 H71           -0.1526    -6.1674    -6.5630 H       
  72 H72            2.8114    -7.6629    -3.8806 H       
  73 H73            3.3396    -7.0544    -5.4678 H       
  74 H74            2.6665    -5.9305    -4.2628 H       
  75 H75            0.0763    -8.8415    -6.0130 H       
  76 H76            1.6985    -8.6534    -6.7211 H       
  77 H77            1.5160    -9.3063    -5.0752 H       
@<TRIPOS>BOND
   1    1    2 ar
   2    1   10 ar
   3    2    3 ar
   4    2   42 1
   5    3    4 ar
   6    3   43 1
   7    4    5 ar
   8    4   44 1
   9    5    6 ar
  10    5   10 ar
  11    6    7 ar
  12    6   45 1
  13    7    8 ar
  14    7   46 1
  15    8    9 ar
  16    8   47 1
  17    9   10 ar
  18    9   11 1
  19   11   12 2
  20   11   13 2
  21   11   14 am
  22   14   15 1
  23   14   48 1
  24   15   16 ar
  25   15   20 ar
  26   16   17 ar
  27   16   49 1
  28   17   18 ar
  29   17   50 1
  30   18   19 ar
  31   18   21 1
  32   19   20 ar
  33   19   51 1
  34   20   52 1
  35   21   22 2
  36   21   23 am
  37   23   24 1
  38   23   29 1
  39   24   25 1
  40   24   53 1
  41   24   54 1
  42   25   26 1
  43   25   55 1
  44   25   56 1
  45   26   27 1
  46   26   30 1
  47   27   28 1
  48   27   57 1
  49   27   58 1
  50   28   29 1
  51   28   59 1
  52   28   60 1
  53   29   61 1
  54   29   62 1
  55   30   31 1
  56   30   63 1
  57   30   64 1
  58   31   32 ar
  59   31   36 ar
  60   32   33 ar
  61   32   37 1
  62   33   34 ar
  63   33   65 1
  64   34   35 ar
  65   34   66 1
  66   35   36 ar
  67   35   67 1
  68   36   68 1
  69   37   38 1
  70   38   39 1
  71   38   41 1
  72   38   40 1
  73   39   69 1
  74   39   70 1
  75   39   71 1
  76   40   72 1
  77   40   73 1
  78   40   74 1
  79   41   75 1
  80   41   76 1
  81   41   77 1

#	End of record

