#	Name: ASD01916968
#	Creating user name:	WinNT
#	Creation time:	15. 06. 2019 20:08

#	Modifying user name:	WinNT
#	Modification time:	15. 06. 2019 20:08

#	Program:	/corina/corina34_cracker 3.40 0067  02.08.2006

@<TRIPOS>MOLECULE
ASD01916968
  42   45    0    0    0
SMALL
NO_CHARGES


@<TRIPOS>ATOM
   1 C1            -0.0166     1.3750     0.0096 C.ar    
   2 C2             0.0021    -0.0041     0.0020 C.ar    
   3 C3             1.2078    -0.6830    -0.0131 C.ar    
   4 C4             2.4027     0.0149    -0.0203 C.ar    
   5 C5             2.3997     1.3941    -0.0129 C.ar    
   6 C6             1.1860     2.0866     0.0019 C.ar    
   7 C7             1.1748     3.5185     0.0093 C.1     
   8 C8             1.1655     4.6925     0.0153 C.1     
   9 C9             1.1543     6.1244     0.0226 C.ar    
  10 C10           -0.0641     6.8085     0.0433 C.ar    
  11 N11            2.3031     6.7936     0.0152 N.ar    
  12 C12            2.3344     8.1104     0.0220 C.ar    
  13 C13            1.1654     8.8491     0.0371 C.ar    
  14 C14           -0.0574     8.1914     0.0506 C.ar    
  15 C15           -1.3490     8.9675     0.0721 C.3     
  16 C16           -1.4182    11.2544     0.0521 C.2     
  17 N17           -1.1958    10.2040     0.8539 N.am    
  18 C18           -1.7030     9.4686    -1.3414 C.3     
  19 O19           -1.7121    10.9196    -1.2092 O.3     
  20 C20           -3.0628     8.9673    -1.7545 C.ar    
  21 C21           -4.1979     9.6650    -1.3863 C.ar    
  22 C22           -3.1747     7.8127    -2.5064 C.ar    
  23 C23           -4.4221     7.3528    -2.8853 C.ar    
  24 C24           -5.5575     8.0472    -2.5118 C.ar    
  25 C25           -5.4453     9.2052    -1.7652 C.ar    
  26 O26           -1.3587    12.4058     0.4358 O.2     
  27 H27           -0.9584     1.9036     0.0169 H       
  28 H28           -0.9266    -0.5554     0.0083 H       
  29 H29            1.2163    -1.7630    -0.0190 H       
  30 H30            3.3399    -0.5217    -0.0315 H       
  31 H31            3.3330     1.9375    -0.0182 H       
  32 H32           -0.9974     6.2651     0.0530 H       
  33 H33            3.2864     8.6203     0.0160 H       
  34 H34            1.2034     9.9284     0.0429 H       
  35 H35           -2.1559     8.3550     0.4744 H       
  36 H36           -0.9708    10.2514     1.7963 H       
  37 H37           -0.9449     9.1550    -2.0590 H       
  38 H38           -4.1103    10.5693    -0.8023 H       
  39 H39           -2.2876     7.2702    -2.7982 H       
  40 H40           -4.5095     6.4512    -3.4733 H       
  41 H41           -6.5320     7.6881    -2.8082 H       
  42 H42           -6.3321     9.7501    -1.4772 H       
@<TRIPOS>BOND
   1    1    2 ar
   2    1    6 ar
   3    1   27 1
   4    2    3 ar
   5    2   28 1
   6    3    4 ar
   7    3   29 1
   8    4    5 ar
   9    4   30 1
  10    5    6 ar
  11    5   31 1
  12    6    7 1
  13    7    8 3
  14    8    9 1
  15    9   11 ar
  16    9   10 ar
  17   10   14 ar
  18   10   32 1
  19   11   12 ar
  20   12   13 ar
  21   12   33 1
  22   13   14 ar
  23   13   34 1
  24   14   15 1
  25   15   18 1
  26   15   17 1
  27   15   35 1
  28   16   17 am
  29   16   19 1
  30   16   26 2
  31   17   36 1
  32   18   19 1
  33   18   20 1
  34   18   37 1
  35   20   22 ar
  36   20   21 ar
  37   21   25 ar
  38   21   38 1
  39   22   23 ar
  40   22   39 1
  41   23   24 ar
  42   23   40 1
  43   24   25 ar
  44   24   41 1
  45   25   42 1

#	End of record

