#	Name: ASD01815841
#	Creating user name:	WinNT
#	Creation time:	15. 06. 2019 19:34

#	Modifying user name:	WinNT
#	Modification time:	15. 06. 2019 19:34

#	Program:	/corina/corina34_cracker 3.40 0067  02.08.2006

@<TRIPOS>MOLECULE
ASD01815841
  60   65    0    0    0
SMALL
NO_CHARGES


@<TRIPOS>ATOM
   1 C1            -0.0168     1.3869     0.0097 C.ar    
   2 C2             0.0021    -0.0041     0.0020 C.ar    
   3 C3             1.1801    -0.6897    -0.0129 C.ar    
   4 C4             2.3948     0.0129    -0.0207 C.ar    
   5 C5             2.3717     1.4290    -0.0129 C.ar    
   6 C6             1.1455     2.1015     0.0024 C.ar    
   7 C7             3.6293    -0.6694    -0.0365 C.ar    
   8 C8             4.8031     0.0063    -0.0446 C.ar    
   9 C9             4.8359     1.4095    -0.0374 C.ar    
  10 C10            3.6406     2.1511    -0.0211 C.ar    
  11 C11            6.1026     2.1526    -0.0470 C.2     
  12 N12            6.0328     3.5041    -0.0399 N.am    
  13 C13            4.8302     4.1313    -0.0241 C.2     
  14 N14            3.6961     3.4935    -0.0158 N.2     
  15 C15            7.2655     4.2957    -0.0490 C.3     
  16 C16            7.2938     5.1857    -1.2953 C.3     
  17 C17            7.3143     5.1822     1.1993 C.3     
  18 C18            8.5657     6.0622     1.1420 C.3     
  19 O19            8.5443     6.8411    -0.0559 O.3     
  20 C20            8.5460     6.0656    -1.2562 C.3     
  21 O21            7.1745     1.5748    -0.0604 O.2     
  22 C22            3.6424    -2.1763    -0.0442 C.3     
  23 C23            3.5087    -2.6726    -1.4608 C.2     
  24 C24            4.5134    -2.9210    -2.3014 C.2     
  25 O25            7.3616     4.3602     2.3672 O.3     
  26 N26            4.1391    -3.3498    -3.4937 N.2     
  27 C27            2.8646    -3.4748    -3.6981 C.2     
  28 S28            1.9979    -3.0329    -2.2922 S.3     
  29 N29            2.2891    -3.9093    -4.8819 N.3     
  30 C30            3.3178    -4.2142    -5.8869 C.3     
  31 C31            2.6435    -4.7458    -7.1545 C.3     
  32 O32            1.6963    -3.7827    -7.6242 O.3     
  33 C33            0.6796    -3.4627    -6.6707 C.3     
  34 C34            1.3340    -2.9181    -5.3983 C.3     
  35 H35           -0.9630     1.9076     0.0169 H       
  36 H36           -0.9305    -0.5488     0.0083 H       
  37 H37            1.1786    -1.7697    -0.0183 H       
  38 H38            1.1188     3.1811     0.0081 H       
  39 H39            5.7317    -0.5451    -0.0563 H       
  40 H40            4.8132     5.2111    -0.0182 H       
  41 H41            8.1273     3.6284    -0.0578 H       
  42 H42            7.3151     4.5613    -2.1884 H       
  43 H43            6.4054     5.8170    -1.3123 H       
  44 H44            6.4263     5.8134     1.2327 H       
  45 H45            8.5835     6.7256     2.0067 H       
  46 H46            9.4545     5.4312     1.1495 H       
  47 H47            9.4345     5.4346    -1.2801 H       
  48 H48            8.5495     6.7314    -2.1192 H       
  49 H49            4.5813    -2.5336     0.3789 H       
  50 H50            2.8098    -2.5499     0.5518 H       
  51 H51            5.5494    -2.7824    -2.0297 H       
  52 H52            7.3941     4.8565     3.1965 H       
  53 H53            3.8752    -3.3080    -6.1239 H       
  54 H54            3.9990    -4.9687    -5.4933 H       
  55 H55            3.3974    -4.9194    -7.9223 H       
  56 H56            2.1306    -5.6808    -6.9291 H       
  57 H57            0.0131    -2.7082    -7.0887 H       
  58 H58            0.1096    -4.3604    -6.4313 H       
  59 H59            0.5670    -2.7264    -4.6479 H       
  60 H60            1.8597    -1.9911    -5.6274 H       
@<TRIPOS>BOND
   1    1    2 ar
   2    1    6 ar
   3    1   35 1
   4    2    3 ar
   5    2   36 1
   6    3    4 ar
   7    3   37 1
   8    4    5 ar
   9    4    7 ar
  10    5    6 ar
  11    5   10 ar
  12    6   38 1
  13    7    8 ar
  14    7   22 1
  15    8    9 ar
  16    8   39 1
  17    9   10 ar
  18    9   11 1
  19   10   14 1
  20   11   12 am
  21   11   21 2
  22   12   13 1
  23   12   15 1
  24   13   14 2
  25   13   40 1
  26   15   16 1
  27   15   17 1
  28   15   41 1
  29   16   20 1
  30   16   42 1
  31   16   43 1
  32   17   18 1
  33   17   25 1
  34   17   44 1
  35   18   19 1
  36   18   45 1
  37   18   46 1
  38   19   20 1
  39   20   47 1
  40   20   48 1
  41   22   23 1
  42   22   49 1
  43   22   50 1
  44   23   24 2
  45   23   28 1
  46   24   26 1
  47   24   51 1
  48   25   52 1
  49   26   27 2
  50   27   28 1
  51   27   29 1
  52   29   30 1
  53   29   34 1
  54   30   31 1
  55   30   53 1
  56   30   54 1
  57   31   32 1
  58   31   55 1
  59   31   56 1
  60   32   33 1
  61   33   34 1
  62   33   57 1
  63   33   58 1
  64   34   59 1
  65   34   60 1

#	End of record

