#	Name: ASD03330882
#	Creating user name:	WinNT
#	Creation time:	15. 06. 2019 20:38

#	Modifying user name:	WinNT
#	Modification time:	15. 06. 2019 20:38

#	Program:	/corina/corina34_cracker 3.40 0067  02.08.2006

@<TRIPOS>MOLECULE
ASD03330882
  64   67    0    0    0
SMALL
NO_CHARGES


@<TRIPOS>ATOM
   1 N1            -0.8279     1.7375    -0.4382 N.pl3   
   2 C2            -0.6546     0.4164    -0.1659 C.2     
   3 C3             0.6559    -0.2457     0.1709 C.3     
   4 N4             1.3534     0.5555     1.1887 N.3     
   5 C5             2.1979     1.5794     0.5705 C.3     
   6 C6             1.5703     2.0986    -0.7199 C.3     
   7 C7             0.2233     2.7584    -0.4124 C.3     
   8 C8            -2.1491     1.9261    -0.7229 C.2     
   9 N9            -2.7697     0.7747    -0.6136 N.2     
  10 C10           -1.8754    -0.1777    -0.2681 C.2     
  11 C11           -2.1688    -1.6040    -0.0430 C.2     
  12 O12           -1.2738    -2.3678     0.2651 O.2     
  13 N13           -3.4290    -2.0624    -0.1787 N.am    
  14 C14           -2.7769     3.2130    -1.0923 C.ar    
  15 C15           -3.6450     3.2815    -2.1854 C.ar    
  16 C16           -4.2292     4.4865    -2.5258 C.ar    
  17 C17           -3.9554     5.6249    -1.7862 C.ar    
  18 C18           -3.0936     5.5624    -0.7001 C.ar    
  19 C19           -2.5092     4.3620    -0.3473 C.ar    
  20 F20           -2.8302     6.6769     0.0166 F       
  21 F21           -4.5289     6.8007    -2.1236 F       
  22 F22           -3.9121     2.1718    -2.9081 F       
  23 C23            2.1380    -0.3020     2.0871 C.3     
  24 C24           -4.9594    -3.8656    -0.7220 C.2     
  25 C25           -3.7207    -3.4805     0.0451 C.3     
  26 C26           -3.9488    -3.7248     1.5381 C.3     
  27 C27           -4.3610    -5.1816     1.7594 C.3     
  28 O28           -5.8289    -3.0441    -0.9217 O.2     
  29 C29           -2.6563    -3.4383     2.3051 C.3     
  30 C30           -5.0573    -2.7989     2.0429 C.3     
  31 N31           -5.1010    -5.1230    -1.1860 N.am    
  32 C32           -6.1543    -5.8862    -1.8722 C.3     
  33 C33           -5.5657    -7.1579    -1.2457 C.3     
  34 C34           -4.2676    -6.3338    -1.2348 C.3     
  35 H35            0.4690    -1.2466     0.5601 H       
  36 H36            1.2718    -0.3117    -0.7260 H       
  37 H37            2.3230     2.4086     1.2668 H       
  38 H38            3.1746     1.1505     0.3464 H       
  39 H39            2.2360     2.8301    -1.1779 H       
  40 H40            1.4179     1.2676    -1.4087 H       
  41 H41            0.0106     3.5195    -1.1631 H       
  42 H42            0.2600     3.2189     0.5748 H       
  43 H43           -4.1428    -1.4533    -0.4244 H       
  44 H44           -4.9002     4.5407    -3.3703 H       
  45 H45           -1.8422     4.3136     0.5008 H       
  46 H46            2.8311    -0.9049     1.5004 H       
  47 H47            2.6984     0.3197     2.7853 H       
  48 H48            1.4666    -0.9572     2.6422 H       
  49 H49           -2.8794    -4.0829    -0.2973 H       
  50 H50           -3.5637    -5.8409     1.4161 H       
  51 H51           -4.5408    -5.3511     2.8210 H       
  52 H52           -5.2720    -5.3906     1.1987 H       
  53 H53           -2.3627    -2.4005     2.1475 H       
  54 H54           -2.8188    -3.6124     3.3688 H       
  55 H55           -1.8666    -4.0980     1.9455 H       
  56 H56           -5.9781    -3.0030     1.4965 H       
  57 H57           -5.2198    -2.9730     3.1066 H       
  58 H58           -4.7637    -1.7611     1.8853 H       
  59 H59           -7.1589    -5.6534    -1.5193 H       
  60 H60           -6.0718    -5.8594    -2.9588 H       
  61 H61           -5.9588    -7.3919    -0.2564 H       
  62 H62           -5.5417    -8.0167    -1.9165 H       
  63 H63           -3.6879    -6.4250    -2.1533 H       
  64 H64           -3.6650    -6.4824    -0.3388 H       
@<TRIPOS>BOND
   1    1    2 1
   2    1    7 1
   3    1    8 1
   4    2    3 1
   5    2   10 2
   6    3    4 1
   7    3   35 1
   8    3   36 1
   9    4    5 1
  10    4   23 1
  11    5    6 1
  12    5   37 1
  13    5   38 1
  14    6    7 1
  15    6   39 1
  16    6   40 1
  17    7   41 1
  18    7   42 1
  19    8    9 2
  20    8   14 1
  21    9   10 1
  22   10   11 1
  23   11   12 2
  24   11   13 am
  25   13   25 1
  26   13   43 1
  27   14   15 ar
  28   14   19 ar
  29   15   16 ar
  30   15   22 1
  31   16   17 ar
  32   16   44 1
  33   17   18 ar
  34   17   21 1
  35   18   19 ar
  36   18   20 1
  37   19   45 1
  38   23   46 1
  39   23   47 1
  40   23   48 1
  41   24   28 2
  42   24   31 am
  43   24   25 1
  44   25   26 1
  45   25   49 1
  46   26   27 1
  47   26   29 1
  48   26   30 1
  49   27   50 1
  50   27   51 1
  51   27   52 1
  52   29   53 1
  53   29   54 1
  54   29   55 1
  55   30   56 1
  56   30   57 1
  57   30   58 1
  58   31   32 1
  59   31   34 1
  60   32   33 1
  61   32   59 1
  62   32   60 1
  63   33   34 1
  64   33   61 1
  65   33   62 1
  66   34   63 1
  67   34   64 1

#	End of record

