#	Name: ASD09116045
#	Creating user name:	WinNT
#	Creation time:	15. 06. 2019 21:20

#	Modifying user name:	WinNT
#	Modification time:	15. 06. 2019 21:20

#	Program:	/corina/corina34_cracker 3.40 0067  02.08.2006

@<TRIPOS>MOLECULE
ASD09116045
  73   78    0    0    0
SMALL
NO_CHARGES


@<TRIPOS>ATOM
   1 N1            -0.0996     1.1281    -1.0042 N.2     
   2 C2            -0.0405    -0.1088    -0.4968 C.2     
   3 N3             1.1990    -0.5342    -0.5511 N.2     
   4 N4             1.9609     0.4958    -1.1258 N.pl3   
   5 C5             1.1004     1.5072    -1.3883 C.2     
   6 N6            -1.1225    -0.8293     0.0090 N.pl3   
   7 C7            -2.3793    -0.2213     0.1172 C.ar    
   8 C8            -3.5327    -0.9881     0.0156 C.ar    
   9 C9            -2.4723     1.1476     0.3319 C.ar    
  10 C10           -3.7116     1.7471     0.4385 C.ar    
  11 C11           -4.8650     0.9811     0.3316 C.ar    
  12 C12           -4.7720    -0.3886     0.1222 C.ar    
  13 N13           -6.1212     1.5887     0.4402 N.3     
  14 C14           -7.1988     0.5997     0.2976 C.3     
  15 C15           -6.2698     2.6705    -0.5433 C.3     
  16 C16           -7.6212     3.3595    -0.3397 C.3     
  17 N17           -8.6987     2.3704    -0.4823 N.3     
  18 C18           -8.5502     1.2886     0.5012 C.3     
  19 C19          -10.0171     3.0081    -0.3684 C.3     
  20 C20          -11.1098     1.9735    -0.6451 C.3     
  21 C21          -10.1920     3.5690     1.0443 C.3     
  22 C22          -11.5652     4.2332     1.1630 C.3     
  23 C23          -12.6578     3.1986     0.8862 C.3     
  24 C24          -12.4829     2.6377    -0.5265 C.3     
  25 N25            1.4249     2.7231    -1.9593 N.pl3   
  26 C26            3.3349     0.4801    -1.3763 C.ar    
  27 C27            4.1755    -0.3448    -0.6266 C.ar    
  28 N28            3.8465     1.2436    -2.3298 N.ar    
  29 N29            5.1031     1.2642    -2.5959 N.ar    
  30 C30            5.9655     0.5190    -1.9294 C.ar    
  31 C31            5.5261    -0.3124    -0.9266 C.ar    
  32 C32            7.4394     0.5790    -2.2723 C.3     
  33 C33            8.1739     1.2760    -1.1239 C.3     
  34 C34            8.5368     0.2894    -0.0324 C.3     
  35 C35            7.3541    -0.2663     0.7352 C.3     
  36 C36            6.5018    -1.1780    -0.1622 C.3     
  37 H37           -1.0043    -1.7514     0.2858 H       
  38 H38           -3.4604    -2.0533    -0.1473 H       
  39 H39           -1.5753     1.7433     0.4158 H       
  40 H40           -3.7839     2.8117     0.6055 H       
  41 H41           -5.6690    -0.9843     0.0391 H       
  42 H42           -7.1605     0.1615    -0.6997 H       
  43 H43           -7.0740    -0.1843     1.0446 H       
  44 H44           -5.4677     3.3964    -0.4094 H       
  45 H45           -6.2210     2.2559    -1.5502 H       
  46 H46           -7.6594     3.7977     0.6576 H       
  47 H47           -7.7459     4.1434    -1.0867 H       
  48 H48           -9.3522     0.5627     0.3672 H       
  49 H49           -8.5990     1.7032     1.5080 H       
  50 H50          -10.0925     3.8188    -1.0931 H       
  51 H51          -10.9852     1.5739    -1.6516 H       
  52 H52          -11.0344     1.1628     0.0796 H       
  53 H53          -10.1167     2.7583     1.7690 H       
  54 H54           -9.4136     4.3061     1.2415 H       
  55 H55          -11.6897     4.6328     2.1695 H       
  56 H56          -11.6405     5.0439     0.4383 H       
  57 H57          -12.5825     2.3879     1.6109 H       
  58 H58          -13.6361     3.6718     0.9708 H       
  59 H59          -12.5583     3.4484    -1.2512 H       
  60 H60          -13.2613     1.9006    -0.7236 H       
  61 H61            2.3427     2.9113    -2.2108 H       
  62 H62            0.7349     3.3883    -2.1086 H       
  63 H63            3.7879    -0.9814     0.1550 H       
  64 H64            7.8287    -0.4313    -2.3976 H       
  65 H65            7.5792     1.1439    -3.1940 H       
  66 H66            9.0846     1.7356    -1.5081 H       
  67 H67            7.5315     2.0513    -0.7064 H       
  68 H68            9.0762    -0.5427    -0.4849 H       
  69 H69            9.2038     0.7851     0.6729 H       
  70 H70            7.7175    -0.8408     1.5872 H       
  71 H71            6.7407     0.5595     1.0958 H       
  72 H72            5.9549    -1.8921     0.4536 H       
  73 H73            7.1460    -1.7122    -0.8606 H       
@<TRIPOS>BOND
   1    1    2 1
   2    1    5 2
   3    2    3 2
   4    2    6 1
   5    3    4 1
   6    4    5 1
   7    4   26 1
   8    5   25 1
   9    6    7 1
  10    6   37 1
  11    7    8 ar
  12    7    9 ar
  13    8   12 ar
  14    8   38 1
  15    9   10 ar
  16    9   39 1
  17   10   11 ar
  18   10   40 1
  19   11   12 ar
  20   11   13 1
  21   12   41 1
  22   13   14 1
  23   13   15 1
  24   14   18 1
  25   14   42 1
  26   14   43 1
  27   15   16 1
  28   15   44 1
  29   15   45 1
  30   16   17 1
  31   16   46 1
  32   16   47 1
  33   17   18 1
  34   17   19 1
  35   18   48 1
  36   18   49 1
  37   19   20 1
  38   19   21 1
  39   19   50 1
  40   20   24 1
  41   20   51 1
  42   20   52 1
  43   21   22 1
  44   21   53 1
  45   21   54 1
  46   22   23 1
  47   22   55 1
  48   22   56 1
  49   23   24 1
  50   23   57 1
  51   23   58 1
  52   24   59 1
  53   24   60 1
  54   25   61 1
  55   25   62 1
  56   26   27 ar
  57   26   28 ar
  58   27   31 ar
  59   27   63 1
  60   28   29 ar
  61   29   30 ar
  62   30   31 ar
  63   30   32 1
  64   31   36 1
  65   32   33 1
  66   32   64 1
  67   32   65 1
  68   33   34 1
  69   33   66 1
  70   33   67 1
  71   34   35 1
  72   34   68 1
  73   34   69 1
  74   35   36 1
  75   35   70 1
  76   35   71 1
  77   36   72 1
  78   36   73 1

#	End of record

