#	Name: ASD01209239
#	Creating user name:	WinNT
#	Creation time:	15. 06. 2019 19:11

#	Modifying user name:	WinNT
#	Modification time:	15. 06. 2019 19:11

#	Program:	/corina/corina34_cracker 3.40 0067  02.08.2006

@<TRIPOS>MOLECULE
ASD01209239
  71   74    0    0    0
SMALL
NO_CHARGES


@<TRIPOS>ATOM
   1 O1            -1.5535     6.3111    -1.5525 O.3     
   2 O2             0.4534     5.6763     0.0229 O.3     
   3 C3             7.2675     8.4887     4.5501 C.ar    
   4 C4             8.6359     8.6425     4.3774 C.ar    
   5 C5             9.1655     8.7952     3.1045 C.ar    
   6 C6             8.3297     8.7947     1.9997 C.ar    
   7 C7             6.9534     8.6403     2.1686 C.ar    
   8 C8             6.4252     8.4818     3.4505 C.ar    
   9 O9            10.5062     8.9459     2.9410 O.3     
  10 C10            6.0578     8.6396     0.9926 C.2     
  11 N11            4.7285     8.4903     1.1580 N.am    
  12 O12            6.5201     8.7736    -0.1236 O.2     
  13 C13            3.8870     8.4897     0.0530 C.2     
  14 P14            0.0321     6.4620    -1.3178 P.3     
  15 O15            0.7586     5.8903    -2.4736 O.2     
  16 C16            0.4558     8.2268    -1.1463 C.3     
  17 N17            2.5986     8.3537     0.1009 N.2     
  18 S18            4.3986     8.6754    -1.5677 S.3     
  19 C19            2.7311     8.5424    -2.1204 C.2     
  20 C20            1.9522     8.3771    -1.0496 C.2     
  21 O21            6.7538     8.3391     5.7993 O.3     
  22 C22            6.4133     9.4602     6.4875 C.ar    
  23 C23            5.9871     9.3646     7.8045 C.ar    
  24 C24            5.6414    10.5058     8.5019 C.ar    
  25 C25            6.4965    10.7031     5.8763 C.ar    
  26 C26           11.3090     8.9375     4.1232 C.3     
  27 C27           12.7576     9.1156     3.7480 C.2     
  28 N28           13.4198    10.2815     3.6304 N.pl3   
  29 N29           14.6329     9.9973     3.2955 N.2     
  30 N30           14.7488     8.7186     3.2017 N.2     
  31 N31           13.6188     8.1650     3.4784 N.2     
  32 C32           12.8669    11.6215     3.8424 C.3     
  33 C33           -2.1839     5.0583    -1.8268 C.3     
  34 C34           -3.6896     5.2712    -1.9957 C.3     
  35 C35            0.3466     4.2579     0.1597 C.3     
  36 C36            0.8285     3.8421     1.5511 C.3     
  37 C37            5.7199    11.7426     7.8887 C.ar    
  38 C38            6.1497    11.8412     6.5781 C.ar    
  39 S39            5.2783    13.1963     8.7811 S.o2    
  40 O40            4.8780    14.1169     7.7753 O.2     
  41 O41            4.3589    12.7389     9.7632 O.2     
  42 C42            6.8249    13.7369     9.5597 C.3     
  43 H43            9.2903     8.6438     5.2365 H       
  44 H44            8.7429     8.9139     1.0090 H       
  45 H45            5.3605     8.3616     3.5857 H       
  46 H46            4.3596     8.3834     2.0487 H       
  47 H47            0.0911     8.7741    -2.0156 H       
  48 H48           -0.0085     8.6260    -0.2446 H       
  49 H49            2.3972     8.5902    -3.1464 H       
  50 H50            5.9253     8.3988     8.2838 H       
  51 H51            5.3093    10.4320     9.5269 H       
  52 H52            6.8326    10.7807     4.8528 H       
  53 H53           11.0003     9.7526     4.7777 H       
  54 H54           11.1822     7.9872     4.6417 H       
  55 H55           12.9919    11.9050     4.8875 H       
  56 H56           13.3909    12.3355     3.2071 H       
  57 H57           11.8064    11.6210     3.5905 H       
  58 H58           -1.7714     4.6370    -2.7436 H       
  59 H59           -2.0046     4.3724    -0.9989 H       
  60 H60           -3.8689     5.9572    -2.8236 H       
  61 H61           -4.1704     4.3157    -2.2049 H       
  62 H62           -4.1020     5.6925    -1.0789 H       
  63 H63           -0.6932     3.9576     0.0306 H       
  64 H64            0.9618     3.7724    -0.5979 H       
  65 H65            0.2133     4.3275     2.3087 H       
  66 H66            0.7471     2.7601     1.6555 H       
  67 H67            1.8683     4.1423     1.6802 H       
  68 H68            6.2105    12.8085     6.1016 H       
  69 H69            7.5674    13.9426     8.7886 H       
  70 H70            6.6430    14.6418    10.1394 H       
  71 H71            7.1938    12.9511    10.2189 H       
@<TRIPOS>BOND
   1    1   33 1
   2    1   14 1
   3    2   35 1
   4    2   14 1
   5    3    4 ar
   6    3   21 1
   7    3    8 ar
   8    4    5 ar
   9    4   43 1
  10    5    6 ar
  11    5    9 1
  12    6    7 ar
  13    6   44 1
  14    7    8 ar
  15    7   10 1
  16    8   45 1
  17    9   26 1
  18   10   11 am
  19   10   12 2
  20   11   13 1
  21   11   46 1
  22   13   17 2
  23   13   18 1
  24   14   15 2
  25   14   16 1
  26   16   20 1
  27   16   47 1
  28   16   48 1
  29   17   20 1
  30   18   19 1
  31   19   20 2
  32   19   49 1
  33   21   22 1
  34   22   23 ar
  35   22   25 ar
  36   23   24 ar
  37   23   50 1
  38   24   37 ar
  39   24   51 1
  40   25   38 ar
  41   25   52 1
  42   26   27 1
  43   26   53 1
  44   26   54 1
  45   27   28 1
  46   27   31 2
  47   28   29 1
  48   28   32 1
  49   29   30 2
  50   30   31 1
  51   32   55 1
  52   32   56 1
  53   32   57 1
  54   33   34 1
  55   33   58 1
  56   33   59 1
  57   34   60 1
  58   34   61 1
  59   34   62 1
  60   35   36 1
  61   35   63 1
  62   35   64 1
  63   36   65 1
  64   36   66 1
  65   36   67 1
  66   37   38 ar
  67   37   39 1
  68   38   68 1
  69   39   40 2
  70   39   41 2
  71   39   42 1
  72   42   69 1
  73   42   70 1
  74   42   71 1

#	End of record

