#	Name: ASD01412016
#	Creating user name:	WinNT
#	Creation time:	15. 06. 2019 19:19

#	Modifying user name:	WinNT
#	Modification time:	15. 06. 2019 19:19

#	Program:	/corina/corina34_cracker 3.40 0067  02.08.2006

@<TRIPOS>MOLECULE
ASD01412016
  82   87    0    0    0
SMALL
NO_CHARGES


@<TRIPOS>ATOM
   1 C1            -0.9750     0.8973    -0.2854 C.ar    
   2 C2            -1.0409    -0.4842    -0.5584 C.ar    
   3 C3            -2.2836    -1.0942    -0.7850 C.ar    
   4 C4            -3.4242    -0.3529    -0.7417 C.ar    
   5 C5            -3.3683     1.0222    -0.4712 C.ar    
   6 C6            -2.1438     1.6431    -0.2380 C.ar    
   7 N7             0.3539     1.2174    -0.1074 N.pl3   
   8 C8             1.1092     0.0764    -0.2621 C.2     
   9 C9             0.2876    -0.9710    -0.5365 C.2     
  10 C10            0.7151    -2.3964    -0.7742 C.3     
  11 C11            0.0636    -3.3051     0.2702 C.3     
  12 C12            0.4977    -4.7523     0.0289 C.3     
  13 C13            0.0609    -5.1892    -1.3708 C.3     
  14 C14            0.7124    -4.2805    -2.4152 C.3     
  15 C15            0.2784    -2.8333    -2.1739 C.3     
  16 C16           -4.6136     1.8137    -0.4279 C.2     
  17 O17           -4.5683     3.0059    -0.1937 O.2     
  18 N18           -5.8007     1.2148    -0.6479 N.am    
  19 C19           -7.0366     2.0003    -0.6049 C.3     
  20 C20           -8.2135     1.1007    -0.8821 C.2     
  21 C21           -7.1920     2.6311     0.7803 C.3     
  22 C22           -6.9771     3.1031    -1.6638 C.3     
  23 C23           -9.1624    -0.7868    -1.9674 C.ar    
  24 O24           -9.2711     1.2958    -0.3216 O.2     
  25 C25          -10.4673    -0.3246    -1.8244 C.ar    
  26 C26          -11.5280    -1.1744    -2.0401 C.ar    
  27 C27          -11.2929    -2.5056    -2.4045 C.ar    
  28 C28           -9.9784    -2.9661    -2.5477 C.ar    
  29 C29           -8.9239    -2.1093    -2.3294 C.ar    
  30 C30          -12.4221    -3.4169    -2.6355 C.2     
  31 C31          -13.4937    -2.9987    -3.3441 C.2     
  32 N32           -8.0906     0.0794    -1.7529 N.am    
  33 C33            0.8767     2.5519     0.1960 C.3     
  34 C34            6.9911    -0.9566    -0.0384 C.ar    
  35 C35            5.7851    -1.5279    -0.3287 C.ar    
  36 C36            4.6101    -0.7783    -0.2033 C.ar    
  37 C37            4.6868     0.5606     0.2218 C.ar    
  38 C38            5.9223     1.1228     0.5123 C.ar    
  39 C39            7.0664     0.3642     0.3813 C.ar    
  40 N40            3.3019    -1.0584    -0.4121 N.2     
  41 C41            2.5761     0.0027    -0.1482 C.2     
  42 N42            3.3893     1.0323     0.2486 N.pl3   
  43 C43          -13.3904    -1.8564    -4.1776 C.2     
  44 O44          -12.3356    -1.2559    -4.2585 O.2     
  45 O45          -14.4622    -1.4353    -4.8810 O.3     
  46 H46           -2.3353    -2.1525    -0.9943 H       
  47 H47           -4.3787    -0.8267    -0.9171 H       
  48 H48           -2.1035     2.7021    -0.0296 H       
  49 H49            1.7997    -2.4689    -0.6928 H       
  50 H50            0.3748    -2.9939     1.2674 H       
  51 H51           -1.0209    -3.2327     0.1889 H       
  52 H52            1.5822    -4.8247     0.1103 H       
  53 H53            0.0335    -5.3997     0.7730 H       
  54 H54            0.3701    -6.2201    -1.5427 H       
  55 H55           -1.0237    -5.1168    -1.4521 H       
  56 H56            1.7970    -4.3529    -2.3338 H       
  57 H57            0.4012    -4.5917    -3.4124 H       
  58 H58           -0.8062    -2.7609    -2.2552 H       
  59 H59            0.7425    -2.1859    -2.9179 H       
  60 H60           -5.8368     0.2636    -0.8348 H       
  61 H61           -6.3407     3.2818     0.9808 H       
  62 H62           -8.1115     3.2156     0.8123 H       
  63 H63           -7.2344     1.8455     1.5346 H       
  64 H64           -6.8664     2.6536    -2.6506 H       
  65 H65           -7.8966     3.6875    -1.6318 H       
  66 H66           -6.1258     3.7537    -1.4633 H       
  67 H67          -10.6478     0.7024    -1.5432 H       
  68 H68          -12.5403    -0.8150    -1.9282 H       
  69 H69           -9.7923    -3.9923    -2.8283 H       
  70 H70           -7.9096    -2.4635    -2.4400 H       
  71 H71          -12.3956    -4.4211    -2.2388 H       
  72 H72          -14.4289    -3.5345    -3.2758 H       
  73 H73           -7.2568    -0.0532    -2.2304 H       
  74 H74            1.1574     2.6016     1.2481 H       
  75 H75            1.7519     2.7486    -0.4232 H       
  76 H76            0.1098     3.2983    -0.0111 H       
  77 H77            7.8952    -1.5400    -0.1321 H       
  78 H78            5.7383    -2.5565    -0.6548 H       
  79 H79            5.9872     2.1500     0.8393 H       
  80 H80            8.0280     0.8010     0.6072 H       
  81 H81            3.1063     1.9251     0.5011 H       
  82 H82          -14.2952    -0.6499    -5.4197 H       
@<TRIPOS>BOND
   1    1    2 ar
   2    1    7 1
   3    1    6 ar
   4    2    3 ar
   5    2    9 1
   6    3    4 ar
   7    3   46 1
   8    4    5 ar
   9    4   47 1
  10    5    6 ar
  11    5   16 1
  12    6   48 1
  13    7    8 1
  14    7   33 1
  15    8    9 2
  16    8   41 1
  17    9   10 1
  18   10   11 1
  19   10   15 1
  20   10   49 1
  21   11   12 1
  22   11   50 1
  23   11   51 1
  24   12   13 1
  25   12   52 1
  26   12   53 1
  27   13   14 1
  28   13   54 1
  29   13   55 1
  30   14   15 1
  31   14   56 1
  32   14   57 1
  33   15   58 1
  34   15   59 1
  35   16   17 2
  36   16   18 am
  37   18   19 1
  38   18   60 1
  39   19   20 1
  40   19   21 1
  41   19   22 1
  42   20   24 2
  43   20   32 am
  44   21   61 1
  45   21   62 1
  46   21   63 1
  47   22   64 1
  48   22   65 1
  49   22   66 1
  50   23   25 ar
  51   23   29 ar
  52   23   32 1
  53   25   26 ar
  54   25   67 1
  55   26   27 ar
  56   26   68 1
  57   27   28 ar
  58   27   30 1
  59   28   29 ar
  60   28   69 1
  61   29   70 1
  62   30   31 2
  63   30   71 1
  64   31   43 1
  65   31   72 1
  66   32   73 1
  67   33   74 1
  68   33   75 1
  69   33   76 1
  70   34   35 ar
  71   34   39 ar
  72   34   77 1
  73   35   36 ar
  74   35   78 1
  75   36   37 ar
  76   36   40 1
  77   37   38 ar
  78   37   42 1
  79   38   39 ar
  80   38   79 1
  81   39   80 1
  82   40   41 2
  83   41   42 1
  84   42   81 1
  85   43   44 2
  86   43   45 1
  87   45   82 1

#	End of record

