#	Name: ASD08070009
#	Creating user name:	WinNT
#	Creation time:	15. 06. 2019 21:14

#	Modifying user name:	WinNT
#	Modification time:	15. 06. 2019 21:14

#	Program:	/corina/corina34_cracker 3.40 0067  02.08.2006

@<TRIPOS>MOLECULE
ASD08070009
  44   45    0    0    0
SMALL
NO_CHARGES


@<TRIPOS>ATOM
   1 N1            -0.2252     1.5075    -0.1295 N.am    
   2 O2             1.0456     1.8950    -2.3887 O.2     
   3 C3             1.1124     2.0987    -0.0423 C.3     
   4 C4             1.0197     3.4742     0.6214 C.3     
   5 C5             1.6873     2.2471    -1.4274 C.2     
   6 O6             2.9122     2.7703    -1.5931 O.3     
   7 C7             3.4020     2.8832    -2.9554 C.3     
   8 C8             0.5287     3.3134     2.0616 C.3     
   9 C9             1.5776     2.5539     2.8763 C.3     
  10 C10            0.3037     4.6943     2.6808 C.3     
  11 C11           -0.3674     0.1687    -0.1918 C.2     
  12 O12            0.6150    -0.5488    -0.1757 O.2     
  13 C13           -1.7092    -0.4245    -0.2793 C.2     
  14 O14           -2.8653     0.2708    -0.3049 O.3     
  15 C15           -1.9723    -1.7549    -0.3524 C.2     
  16 C16           -3.4280    -1.8769    -0.4241 C.ar    
  17 C17           -3.9236    -0.5603    -0.3896 C.ar    
  18 C18           -4.3099    -2.9564    -0.5138 C.ar    
  19 C19           -5.6698    -2.7224    -0.5648 C.ar    
  20 C20           -6.1578    -1.4189    -0.5270 C.ar    
  21 C21           -5.2959    -0.3475    -0.4427 C.ar    
  22 O22           -6.5348    -3.7679    -0.6526 O.3     
  23 C23           -7.9282    -3.4547    -0.7014 C.3     
  24 H24           -1.0086     2.0793    -0.1383 H       
  25 H25            1.7578     1.4515     0.5516 H       
  26 H26            2.0034     3.9437     0.6232 H       
  27 H27            0.3198     4.0989     0.0665 H       
  28 H28            4.4005     3.3203    -2.9474 H       
  29 H29            3.4423     1.8934    -3.4101 H       
  30 H30            2.7309     3.5205    -3.5312 H       
  31 H31           -0.4081     2.7563     2.0660 H       
  32 H32            2.5145     3.1111     2.8719 H       
  33 H33            1.2278     2.4394     3.9022 H       
  34 H34            1.7379     1.5701     2.4351 H       
  35 H35           -0.1281     4.5807     3.6751 H       
  36 H36            1.2566     5.2183     2.7562 H       
  37 H37           -0.3775     5.2678     2.0522 H       
  38 H38           -1.2523    -2.5599    -0.3567 H       
  39 H39           -3.9307    -3.9672    -0.5434 H       
  40 H40           -7.2231    -1.2457    -0.5674 H       
  41 H41           -5.6873     0.6587    -0.4138 H       
  42 H42           -8.2113    -2.9155     0.2026 H       
  43 H43           -8.1306    -2.8331    -1.5737 H       
  44 H44           -8.5056    -4.3766    -0.7704 H       
@<TRIPOS>BOND
   1    1   11 am
   2    1    3 1
   3    1   24 1
   4    2    5 2
   5    3    4 1
   6    3    5 1
   7    3   25 1
   8    4    8 1
   9    4   26 1
  10    4   27 1
  11    5    6 1
  12    6    7 1
  13    7   28 1
  14    7   29 1
  15    7   30 1
  16    8    9 1
  17    8   10 1
  18    8   31 1
  19    9   32 1
  20    9   33 1
  21    9   34 1
  22   10   35 1
  23   10   36 1
  24   10   37 1
  25   11   12 2
  26   11   13 1
  27   13   14 1
  28   13   15 2
  29   14   17 1
  30   15   16 1
  31   15   38 1
  32   16   17 ar
  33   16   18 ar
  34   17   21 ar
  35   18   19 ar
  36   18   39 1
  37   19   20 ar
  38   19   22 1
  39   20   21 ar
  40   20   40 1
  41   21   41 1
  42   22   23 1
  43   23   42 1
  44   23   43 1
  45   23   44 1

#	End of record

