#	Name: ASD01410848
#	Creating user name:	WinNT
#	Creation time:	15. 06. 2019 19:18

#	Modifying user name:	WinNT
#	Modification time:	15. 06. 2019 19:18

#	Program:	/corina/corina34_cracker 3.40 0067  02.08.2006

@<TRIPOS>MOLECULE
ASD01410848
 128  135    0    0    0
SMALL
NO_CHARGES


@<TRIPOS>ATOM
   1 C1             0.3100     2.4435     2.1650 C.3     
   2 C2             0.4141     1.0606     2.8491 C.3     
   3 N3             0.8111     1.3657     4.2392 N.am    
   4 C4             0.3304     2.7116     4.5747 C.3     
   5 C5            -0.3153     3.2986     3.3007 C.3     
   6 O6             1.6018     2.9359     1.8033 O.3     
   7 C7            -0.6935     2.6301     5.6774 C.2     
   8 O8            -0.9980     1.5527     6.1438 O.2     
   9 N9            -1.2709     3.7544     6.1453 N.am    
  10 C10            1.5483     0.2516     2.2101 C.3     
  11 N11            1.8207    -0.9026     3.0761 N.am    
  12 C12            2.1417    -0.7155     4.4893 C.3     
  13 C13            1.5272     0.5461     5.0272 C.2     
  14 O14            1.6808     0.8302     6.1963 O.2     
  15 C15            1.6118    -1.9097     5.2856 C.3     
  16 C16            1.8294    -1.6632     6.7799 C.3     
  17 C17            0.1170    -2.0838     5.0097 C.3     
  18 C18           -2.3487     3.6676     7.1338 C.3     
  19 C19           -3.6233     3.0247     6.6510 C.2     
  20 N20           -3.7638     2.7004     5.3504 N.am    
  21 O21           -4.5226     2.7990     7.4328 O.2     
  22 S22           -5.2077     2.1088     4.7958 S.o2    
  23 C23           -6.3723     3.4829     5.0107 C.3     
  24 C24           -1.9516     3.4398     8.5938 C.3     
  25 C25           -2.4722     4.8080     8.1463 C.3     
  26 C26           -7.8453     3.2165     4.6943 C.3     
  27 C27           -7.3913     3.3742     6.1468 C.3     
  28 O28           -4.9779     1.8611     3.4155 O.2     
  29 O29           -5.5179     1.0479     5.6888 O.2     
  30 C30           -2.8653     2.5902     9.4390 C.2     
  31 C31           -2.4140     1.4902     9.9889 C.2     
  32 C32            1.6524     3.8652     0.8168 C.ar    
  33 C33            2.8903     4.3859     0.3727 C.ar    
  34 C34            0.5061     4.3205     0.2200 C.ar    
  35 C35            0.5854     5.2809    -0.7977 C.ar    
  36 N36            1.7475     5.7648    -1.2025 N.ar    
  37 C37            2.8988     5.3550    -0.6607 C.ar    
  38 C38           -0.6585     5.7636    -1.4333 C.2     
  39 S39           -2.2885     5.2386    -1.0192 S.3     
  40 C40            4.1281     5.8775    -1.0994 C.ar    
  41 C41            5.2987     5.4372    -0.5229 C.ar    
  42 C42            5.2778     4.4772     0.4928 C.ar    
  43 C43            4.1006     3.9588     0.9380 C.ar    
  44 Cl44           4.1701     7.0699    -2.3604 Cl      
  45 O45            6.4871     5.9413    -0.9466 O.3     
  46 C46            7.6663     5.4450    -0.3099 C.3     
  47 N47           -0.7260     6.6496    -2.3857 N.2     
  48 C48           -1.9201     6.9585    -2.8303 C.2     
  49 C49           -2.9432     6.3218    -2.2459 C.2     
  50 C50           -2.1285     7.9688    -3.9289 C.3     
  51 C51           -2.2296     7.2463    -5.2737 C.3     
  52 C52           -3.4207     8.7457    -3.6689 C.3     
  53 C53            1.7737    -2.1476     2.5622 C.2     
  54 C54            8.8968     6.1238    -0.9150 C.3     
  55 N55            8.8644     7.5600    -0.6078 N.3     
  56 C56           10.1375     8.2036    -0.9633 C.3     
  57 C57            1.5468    -2.3452     1.0855 C.3     
  58 O58            1.9141    -3.1090     3.2881 O.2     
  59 C59           10.0395     9.7055    -0.6832 C.3     
  60 O60            9.6954     9.9078     0.6901 O.3     
  61 C61            8.4606     9.2948     1.0706 C.3     
  62 C62            8.5426     7.7887     0.8083 C.3     
  63 C63            1.5374    -3.8416     0.7667 C.3     
  64 C64            0.4142    -4.5230     1.5509 C.3     
  65 C65            1.3070    -4.0421    -0.7325 C.3     
  66 C66            2.8815    -4.4559     1.1629 C.3     
  67 H67           -0.3482     2.4025     1.2971 H       
  68 H68           -0.5363     0.5281     2.8146 H       
  69 H69            1.1668     3.3365     4.8881 H       
  70 H70           -0.0496     4.3491     3.1830 H       
  71 H71           -1.3979     3.1743     3.3252 H       
  72 H72           -0.9729     4.6211     5.8276 H       
  73 H73            1.2446    -0.0924     1.2214 H       
  74 H74            2.4419     0.8703     2.1279 H       
  75 H75            3.2242    -0.6627     4.6054 H       
  76 H76            2.1443    -2.8120     4.9849 H       
  77 H77            1.2969    -0.7609     7.0806 H       
  78 H78            1.4519    -2.5140     7.3472 H       
  79 H79            2.8943    -1.5392     6.9764 H       
  80 H80           -0.4155    -1.1814     5.3105 H       
  81 H81           -0.0380    -2.2593     3.9452 H       
  82 H82           -0.2605    -2.9345     5.5770 H       
  83 H83           -3.0191     2.8135     4.7392 H       
  84 H84           -5.9790     4.4729     4.7800 H       
  85 H85           -0.8885     3.3546     8.8188 H       
  86 H86           -1.7515     5.6228     8.0772 H       
  87 H87           -3.4754     5.0931     8.4635 H       
  88 H88           -8.4212     4.0315     4.2557 H       
  89 H89           -8.1146     2.2156     4.3569 H       
  90 H90           -7.3618     2.4770     6.7651 H       
  91 H91           -7.6685     4.2928     6.6639 H       
  92 H92           -3.8921     2.8882     9.5913 H       
  93 H93           -3.0688     0.8813    10.5946 H       
  94 H94           -1.3872     1.1922     9.8365 H       
  95 H95           -0.4553     3.9402     0.5325 H       
  96 H96            6.2070     4.1451     0.9319 H       
  97 H97            4.0988     3.2176     1.7235 H       
  98 H98            7.6207     5.6602     0.7577 H       
  99 H99            7.7346     4.3677    -0.4608 H       
 100 H100          -3.9886     6.4506    -2.4843 H       
 101 H101          -1.2866     8.6608    -3.9506 H       
 102 H102          -3.0715     6.5543    -5.2520 H       
 103 H103          -2.3804     7.9770    -6.0683 H       
 104 H104          -1.3090     6.6928    -5.4590 H       
 105 H105          -3.3486     9.2605    -2.7108 H       
 106 H106          -3.5714     9.4764    -4.4635 H       
 107 H107          -4.2625     8.0537    -3.6471 H       
 108 H108           9.7996     5.6823    -0.4930 H       
 109 H109           8.8945     5.9833    -1.9959 H       
 110 H110          10.9418     7.7737    -0.3662 H       
 111 H111          10.3433     8.0433    -2.0216 H       
 112 H112           0.5893    -1.9075     0.8033 H       
 113 H113           2.3470    -1.8597     0.5268 H       
 114 H114          10.9995    10.1780    -0.8913 H       
 115 H115           9.2713    10.1450    -1.3194 H       
 116 H116           8.2787     9.4703     2.1309 H       
 117 H117           7.6465     9.7224     0.4854 H       
 118 H118           7.5842     7.3257     1.0432 H       
 119 H119           9.3214     7.3523     1.4337 H       
 120 H120          -0.5433    -4.0854     1.2687 H       
 121 H121           0.4075    -5.5891     1.3238 H       
 122 H122           0.5783    -4.3801     2.6190 H       
 123 H123           2.1072    -3.5567    -1.2912 H       
 124 H124           1.3003    -5.1082    -0.9596 H       
 125 H125           0.3495    -3.6045    -1.0147 H       
 126 H126           3.0456    -4.3130     2.2309 H       
 127 H127           2.8747    -5.5220     0.9357 H       
 128 H128           3.6816    -3.9705     0.6042 H       
@<TRIPOS>BOND
   1    1    2 1
   2    1    6 1
   3    1    5 1
   4    1   67 1
   5    2    3 1
   6    2   10 1
   7    2   68 1
   8    3    4 1
   9    3   13 am
  10    4    5 1
  11    4    7 1
  12    4   69 1
  13    5   70 1
  14    5   71 1
  15    6   32 1
  16    7    8 2
  17    7    9 am
  18    9   18 1
  19    9   72 1
  20   10   11 1
  21   10   73 1
  22   10   74 1
  23   11   12 1
  24   11   53 am
  25   12   13 1
  26   12   15 1
  27   12   75 1
  28   13   14 2
  29   15   16 1
  30   15   17 1
  31   15   76 1
  32   16   77 1
  33   16   78 1
  34   16   79 1
  35   17   80 1
  36   17   81 1
  37   17   82 1
  38   18   19 1
  39   18   24 1
  40   18   25 1
  41   19   20 am
  42   19   21 2
  43   20   22 am
  44   20   83 1
  45   22   23 1
  46   22   28 2
  47   22   29 2
  48   23   26 1
  49   23   27 1
  50   23   84 1
  51   24   25 1
  52   24   30 1
  53   24   85 1
  54   25   86 1
  55   25   87 1
  56   26   27 1
  57   26   88 1
  58   26   89 1
  59   27   90 1
  60   27   91 1
  61   30   31 2
  62   30   92 1
  63   31   93 1
  64   31   94 1
  65   32   33 ar
  66   32   34 ar
  67   33   37 ar
  68   33   43 ar
  69   34   35 ar
  70   34   95 1
  71   35   36 ar
  72   35   38 1
  73   36   37 ar
  74   37   40 ar
  75   38   47 2
  76   38   39 1
  77   39   49 1
  78   40   41 ar
  79   40   44 1
  80   41   42 ar
  81   41   45 1
  82   42   43 ar
  83   42   96 1
  84   43   97 1
  85   45   46 1
  86   46   54 1
  87   46   98 1
  88   46   99 1
  89   47   48 1
  90   48   49 2
  91   48   50 1
  92   49  100 1
  93   50   51 1
  94   50   52 1
  95   50  101 1
  96   51  102 1
  97   51  103 1
  98   51  104 1
  99   52  105 1
 100   52  106 1
 101   52  107 1
 102   53   57 1
 103   53   58 2
 104   54   55 1
 105   54  108 1
 106   54  109 1
 107   55   56 1
 108   55   62 1
 109   56   59 1
 110   56  110 1
 111   56  111 1
 112   57   63 1
 113   57  112 1
 114   57  113 1
 115   59   60 1
 116   59  114 1
 117   59  115 1
 118   60   61 1
 119   61   62 1
 120   61  116 1
 121   61  117 1
 122   62  118 1
 123   62  119 1
 124   63   64 1
 125   63   65 1
 126   63   66 1
 127   64  120 1
 128   64  121 1
 129   64  122 1
 130   65  123 1
 131   65  124 1
 132   65  125 1
 133   66  126 1
 134   66  127 1
 135   66  128 1

#	End of record

