#	Name: ASD03091710
#	Creating user name:	WinNT
#	Creation time:	15. 06. 2019 20:31

#	Modifying user name:	WinNT
#	Modification time:	15. 06. 2019 20:31

#	Program:	/corina/corina34_cracker 3.40 0067  02.08.2006

@<TRIPOS>MOLECULE
ASD03091710
  58   60    0    0    0
SMALL
NO_CHARGES


@<TRIPOS>ATOM
   1 C1            -0.0162     1.3453     0.0094 C.2     
   2 C2             0.0021    -0.0041     0.0020 C.2     
   3 N3            -1.1891    -0.5619     0.0104 N.2     
   4 C4            -2.2149     0.2352     0.0244 C.2     
   5 S5            -1.6994     1.8650     0.0360 S.3     
   6 N6            -3.5353    -0.1761     0.0348 N.3     
   7 C7            -3.6302    -1.6432     0.0285 C.3     
   8 C8            -4.2751     0.3987    -1.0981 C.3     
   9 C9            -5.7416    -0.0329    -1.0147 C.3     
  10 O10           -5.8124    -1.4611    -0.9904 O.3     
  11 C11           -5.1032    -2.0543     0.1006 C.3     
  12 C12            1.1654     2.2296     0.0029 C.ar    
  13 C13            2.4623     1.6988    -0.0128 C.ar    
  14 C14            1.0220     3.6235     0.0064 C.ar    
  15 C15            2.1527     4.4111    -0.0005 C.ar    
  16 N16            3.3566     3.8694    -0.0106 N.ar    
  17 C17            3.5368     2.5615    -0.0189 C.ar    
  18 C18            2.0132     5.9117     0.0032 C.3     
  19 C19            4.9370     2.0044    -0.0298 C.3     
  20 C20           -5.2132    -3.5778     0.0136 C.3     
  21 C21           -6.3684     0.5314     0.2619 C.3     
  22 F22           -4.6614    -4.0169    -1.1947 F       
  23 F23           -4.5192    -4.1573     1.0812 F       
  24 F24           -6.5598    -3.9523     0.0746 F       
  25 H25            0.9173    -0.5774    -0.0098 H       
  26 H26           -3.1881    -2.0325    -0.8887 H       
  27 H27           -3.0972    -2.0461     0.8897 H       
  28 H28           -4.2130     1.4862    -1.0593 H       
  29 H29           -3.8434     0.0420    -2.0333 H       
  30 H30           -6.2818     0.3436    -1.8833 H       
  31 H31           -5.5311    -1.7110     1.0425 H       
  32 H32            2.6172     0.6300    -0.0197 H       
  33 H33            0.0403     4.0737     0.0139 H       
  34 H34            1.9870     6.2716     1.0317 H       
  35 H35            2.8619     6.3568    -0.5161 H       
  36 H36            1.0897     6.1919    -0.5035 H       
  37 H37            5.2802     1.8643     0.9952 H       
  38 H38            4.9427     1.0461    -0.5491 H       
  39 H39            5.6008     2.6999    -0.5434 H       
  40 H40           -6.3107     1.6197     0.2446 H       
  41 H41           -7.4124     0.2238     0.3207 H       
  42 H42           -5.8286     0.1527     1.1298 H       
  43 N43           11.6245    16.7964     7.0476 N.am    
  44 C44           11.6428    15.4488     7.0402 C.2     
  45 C45           12.9579    14.7132     7.0237 C.3     
  46 O46           10.6008    14.8282     7.0468 O.2     
  47 C47           12.6988    13.2053     7.0181 C.3     
  48 C48           13.9104    12.2807     6.8833 C.3     
  49 C49           13.1849    12.4004     8.2250 C.3     
  50 H50           12.4578    17.2928     7.0423 H       
  51 H51           10.7779    17.2700     7.0542 H       
  52 H52           13.5173    14.9890     6.1298 H       
  53 H53           13.5343    14.9795     7.9097 H       
  54 H54           11.7696    12.8897     6.5435 H       
  55 H55           13.7782    11.3568     6.3203 H       
  56 H56           14.8921    12.7468     6.7986 H       
  57 H57           13.6894    12.9451     9.0231 H       
  58 H58           12.5755    11.5552     8.5448 H       
@<TRIPOS>BOND
   1    1    2 2
   2    1   12 1
   3    1    5 1
   4    2    3 1
   5    2   25 1
   6    3    4 2
   7    4    5 1
   8    4    6 1
   9    6    7 1
  10    6    8 1
  11    7   11 1
  12    7   26 1
  13    7   27 1
  14    8    9 1
  15    8   28 1
  16    8   29 1
  17    9   10 1
  18    9   21 1
  19    9   30 1
  20   10   11 1
  21   11   20 1
  22   11   31 1
  23   12   13 ar
  24   12   14 ar
  25   13   17 ar
  26   13   32 1
  27   14   15 ar
  28   14   33 1
  29   15   16 ar
  30   15   18 1
  31   16   17 ar
  32   17   19 1
  33   18   34 1
  34   18   35 1
  35   18   36 1
  36   19   37 1
  37   19   38 1
  38   19   39 1
  39   20   22 1
  40   20   23 1
  41   20   24 1
  42   21   40 1
  43   21   41 1
  44   21   42 1
  45   43   44 am
  46   43   50 1
  47   43   51 1
  48   44   45 1
  49   44   46 2
  50   45   47 1
  51   45   52 1
  52   45   53 1
  53   47   48 1
  54   47   49 1
  55   47   54 1
  56   48   49 1
  57   48   55 1
  58   48   56 1
  59   49   57 1
  60   49   58 1

#	End of record

