#	Name: ASD01882478
#	Creating user name:	WinNT
#	Creation time:	15. 06. 2019 19:44

#	Modifying user name:	WinNT
#	Modification time:	15. 06. 2019 19:44

#	Program:	/corina/corina34_cracker 3.40 0067  02.08.2006

@<TRIPOS>MOLECULE
ASD01882478
  55   59    0    0    0
SMALL
NO_CHARGES


@<TRIPOS>ATOM
   1 C1             0.0002     1.4093     0.0954 C.2     
   2 C2             0.0145     0.0001     0.0937 C.2     
   3 C3             1.2042    -0.6519    -0.0173 C.2     
   4 C4             2.3956     0.0854    -0.1281 C.2     
   5 C5             2.3660     1.4345    -0.1246 C.2     
   6 N6             1.1810     2.1015    -0.0144 N.pl3   
   7 N7            -0.4565     3.4905     0.1355 N.2     
   8 N8            -0.9656     2.3095     0.1802 N.2     
   9 C9             0.8444     3.4193     0.0168 C.2     
  10 C10            1.2438    -2.1584    -0.0209 C.3     
  11 C11            1.7351    -2.6524    -1.3831 C.3     
  12 N12            2.1585    -2.6267     1.0288 N.3     
  13 C13            1.7817    -2.0786     2.3381 C.3     
  14 C14            2.8354    -2.4672     3.3776 C.3     
  15 C15            2.9339    -3.9934     3.4515 C.3     
  16 C16            3.2798    -4.5425     2.0646 C.3     
  17 C17            2.2132    -4.0937     1.0631 C.3     
  18 C18            4.0121    -4.3817     4.4302 C.ar    
  19 C19            3.6972    -5.1462     5.5381 C.ar    
  20 C20            4.6862    -5.5023     6.4358 C.ar    
  21 C21            5.9902    -5.0944     6.2254 C.ar    
  22 C22            6.3052    -4.3308     5.1170 C.ar    
  23 C23            5.3169    -3.9783     4.2170 C.ar    
  24 C24            1.7961     4.5844    -0.0709 C.3     
  25 C25            1.9857     4.9789    -1.5369 C.3     
  26 C26            2.8286     6.2215    -1.8308 C.3     
  27 C27            3.3867     4.8294    -2.1333 C.3     
  28 Cl28          -1.4673    -0.8935     0.2321 Cl      
  29 H29            3.3402    -0.4307    -0.2163 H       
  30 H30            3.2878     1.9908    -0.2099 H       
  31 H31            0.2437    -2.5486     0.1680 H       
  32 H32            1.7637    -3.7420    -1.3857 H       
  33 H33            1.0564    -2.3049    -2.1620 H       
  34 H34            2.7352    -2.2622    -1.5720 H       
  35 H35            1.7192    -0.9924     2.2727 H       
  36 H36            0.8130    -2.4807     2.6350 H       
  37 H37            3.8016    -2.0538     3.0885 H       
  38 H38            2.5474    -2.0735     4.3524 H       
  39 H39            1.9788    -4.4047     3.7783 H       
  40 H40            4.2530    -4.1617     1.7549 H       
  41 H41            3.3094    -5.6314     2.1013 H       
  42 H42            1.2426    -4.4864     1.3660 H       
  43 H43            2.4642    -4.4711     0.0718 H       
  44 H44            2.6785    -5.4648     5.7025 H       
  45 H45            4.4401    -6.0989     7.3018 H       
  46 H46            6.7627    -5.3721     6.9272 H       
  47 H47            7.3239    -4.0118     4.9528 H       
  48 H48            5.5637    -3.3848     3.3491 H       
  49 H49            1.3877     5.4297     0.4830 H       
  50 H50            2.7580     4.3008     0.3564 H       
  51 H51            1.1363     4.7808    -2.1907 H       
  52 H52            2.5340     6.8406    -2.6782 H       
  53 H53            3.2481     6.7579    -0.9798 H       
  54 H54            4.1734     4.4500    -1.4811 H       
  55 H55            3.4593     4.5327    -3.1796 H       
@<TRIPOS>BOND
   1    1    2 1
   2    1    6 1
   3    1    8 2
   4    2    3 2
   5    2   28 1
   6    3    4 1
   7    3   10 1
   8    4    5 2
   9    4   29 1
  10    5    6 1
  11    5   30 1
  12    6    9 1
  13    7    8 1
  14    7    9 2
  15    9   24 1
  16   10   11 1
  17   10   12 1
  18   10   31 1
  19   11   32 1
  20   11   33 1
  21   11   34 1
  22   12   13 1
  23   12   17 1
  24   13   14 1
  25   13   35 1
  26   13   36 1
  27   14   15 1
  28   14   37 1
  29   14   38 1
  30   15   16 1
  31   15   18 1
  32   15   39 1
  33   16   17 1
  34   16   40 1
  35   16   41 1
  36   17   42 1
  37   17   43 1
  38   18   19 ar
  39   18   23 ar
  40   19   20 ar
  41   19   44 1
  42   20   21 ar
  43   20   45 1
  44   21   22 ar
  45   21   46 1
  46   22   23 ar
  47   22   47 1
  48   23   48 1
  49   24   25 1
  50   24   49 1
  51   24   50 1
  52   25   26 1
  53   25   27 1
  54   25   51 1
  55   26   27 1
  56   26   52 1
  57   26   53 1
  58   27   54 1
  59   27   55 1

#	End of record

