#	Name: ASD00990131
#	Creating user name:	WinNT
#	Creation time:	15. 06. 2019 18:54

#	Modifying user name:	WinNT
#	Modification time:	15. 06. 2019 18:54

#	Program:	/corina/corina34_cracker 3.40 0067  02.08.2006

@<TRIPOS>MOLECULE
ASD00990131
  60   63    0    0    0
SMALL
NO_CHARGES


@<TRIPOS>ATOM
   1 O1             0.0021    -0.0041     0.0020 O.2     
   2 C2            -0.0144     1.2086     0.0087 C.2     
   3 N3             1.1435     1.8983     0.0013 N.am    
   4 C4             2.4220     1.1832    -0.0147 C.3     
   5 H5             2.3338     0.2679     0.5707 H       
   6 C6             2.7920     0.8322    -1.4572 C.3     
   7 C7             4.1272     0.0853    -1.4740 C.3     
   8 C8             5.2163     0.9741    -0.8699 C.3     
   9 H9             5.3046     1.8893    -1.4554 H       
  10 C10            6.5515     0.2272    -0.8867 C.3     
  11 C11            7.6630     1.1586    -0.3989 C.3     
  12 N12            8.9450     0.4415    -0.4150 N.3     
  13 C13            9.2410    -0.0796    -1.7590 C.3     
  14 C14           10.7155    -0.4799    -1.8106 C.3     
  15 C15           11.0501    -1.3651    -0.6368 C.ar    
  16 C16           12.2157    -2.1168    -0.6899 C.ar    
  17 C17           12.5681    -2.9379     0.3587 C.ar    
  18 C18           11.7451    -3.0135     1.4840 C.ar    
  19 C19           10.5743    -2.2577     1.5316 C.ar    
  20 C20           10.2294    -1.4380     0.4709 C.ar    
  21 C21            8.9492    -0.6495     0.5645 C.3     
  22 C22           12.1008    -3.8617     2.5816 C.1     
  23 N23           12.3829    -4.5346     3.4522 N.1     
  24 C24            4.8463     1.3250     0.5726 C.3     
  25 C25            3.5111     2.0719     0.5893 C.3     
  26 C26           -1.3296     1.9443     0.0189 C.3     
  27 H27           -1.2768     2.8071    -0.6451 H       
  28 C28           -1.6619     2.4055     1.4536 C.3     
  29 C29           -3.1957     2.1904     1.5433 C.3     
  30 C30           -3.3817     0.9065     0.6969 C.3     
  31 N31           -2.4121     1.0425    -0.4155 N.3     
  32 H32            1.1304     2.8682     0.0067 H       
  33 H33            2.0161     0.1990    -1.8876 H       
  34 H34            2.8802     1.7474    -2.0426 H       
  35 H35            4.0389    -0.8299    -0.8886 H       
  36 H36            4.3908    -0.1647    -2.5017 H       
  37 H37            6.4906    -0.6408    -0.2302 H       
  38 H38            6.7718    -0.1005    -1.9027 H       
  39 H39            7.7240     2.0265    -1.0555 H       
  40 H40            7.4428     1.4862     0.6170 H       
  41 H41            8.6177    -0.9511    -1.9593 H       
  42 H42            9.0450     0.6929    -2.5026 H       
  43 H43           10.9120    -1.0185    -2.7376 H       
  44 H44           11.3351     0.4162    -1.7762 H       
  45 H45           12.8517    -2.0577    -1.5608 H       
  46 H46           13.4762    -3.5205     0.3103 H       
  47 H47            9.9338    -2.3123     2.3995 H       
  48 H48            8.8559    -0.2328     1.5674 H       
  49 H49            8.1045    -1.3105     0.3703 H       
  50 H50            4.7581     0.4098     1.1580 H       
  51 H51            5.6223     1.9582     1.0029 H       
  52 H52            3.5994     2.9871     0.0039 H       
  53 H53            3.2476     2.3219     1.6170 H       
  54 H54           -1.1427     1.7884     2.1868 H       
  55 H55           -1.4118     3.4579     1.5877 H       
  56 H56           -3.5074     2.0266     2.5749 H       
  57 H57           -3.7341     3.0297     1.1030 H       
  58 H58           -3.1553     0.0227     1.2933 H       
  59 H59           -4.3984     0.8524     0.3077 H       
  60 H60           -2.8612     1.3917    -1.2488 H       
@<TRIPOS>BOND
   1    1    2 2
   2    2    3 am
   3    2   26 1
   4    3    4 1
   5    3   32 1
   6    4    5 1
   7    4   25 1
   8    4    6 1
   9    6    7 1
  10    6   33 1
  11    6   34 1
  12    7    8 1
  13    7   35 1
  14    7   36 1
  15    8    9 1
  16    8   10 1
  17    8   24 1
  18   10   11 1
  19   10   37 1
  20   10   38 1
  21   11   12 1
  22   11   39 1
  23   11   40 1
  24   12   21 1
  25   12   13 1
  26   13   14 1
  27   13   41 1
  28   13   42 1
  29   14   15 1
  30   14   43 1
  31   14   44 1
  32   15   20 ar
  33   15   16 ar
  34   16   17 ar
  35   16   45 1
  36   17   18 ar
  37   17   46 1
  38   18   19 ar
  39   18   22 1
  40   19   20 ar
  41   19   47 1
  42   20   21 1
  43   21   48 1
  44   21   49 1
  45   22   23 3
  46   24   25 1
  47   24   50 1
  48   24   51 1
  49   25   52 1
  50   25   53 1
  51   26   27 1
  52   26   31 1
  53   26   28 1
  54   28   29 1
  55   28   54 1
  56   28   55 1
  57   29   30 1
  58   29   56 1
  59   29   57 1
  60   30   31 1
  61   30   58 1
  62   30   59 1
  63   31   60 1

#	End of record

