#	Name: ASD01810391
#	Creating user name:	WinNT
#	Creation time:	15. 06. 2019 19:24

#	Modifying user name:	WinNT
#	Modification time:	15. 06. 2019 19:24

#	Program:	/corina/corina34_cracker 3.40 0067  02.08.2006

@<TRIPOS>MOLECULE
ASD01810391
  44   47    0    0    0
SMALL
NO_CHARGES


@<TRIPOS>ATOM
   1 C1             0.1034     1.4774     0.3887 C.ar    
   2 C2             0.0847     0.0897     0.3806 C.ar    
   3 C3             1.2529    -0.6294     0.2393 C.ar    
   4 C4             2.4696     0.0392     0.1026 C.ar    
   5 C5             2.4838     1.4435     0.1113 C.ar    
   6 C6             1.2935     2.1572     0.2552 C.ar    
   7 N7             3.6449    -0.6674    -0.0390 N.pl3   
   8 C8             4.8371    -0.0731    -0.1725 C.2     
   9 C9             4.9777     1.3002    -0.1787 C.2     
  10 C10            3.7766     2.1383    -0.0341 C.2     
  11 O11            3.8473     3.3548    -0.0337 O.2     
  12 C12            6.3045     1.9149    -0.3266 C.2     
  13 C13            3.5868    -2.1313    -0.0430 C.3     
  14 C14            3.4437    -2.6244    -1.4598 C.ar    
  15 C15            4.5642    -2.7661    -2.2576 C.ar    
  16 C16            4.4362    -3.2174    -3.5567 C.ar    
  17 C17            3.1809    -3.5294    -4.0611 C.ar    
  18 C18            2.0577    -3.3866    -3.2575 C.ar    
  19 C19            2.1927    -2.9397    -1.9576 C.ar    
  20 N20            3.0476    -3.9873    -5.3794 N.pl3   
  21 O21            7.2899     1.2129    -0.4449 O.2     
  22 O22            6.4287     3.2572    -0.3312 O.3     
  23 F23            1.2192    -1.9800     0.2337 F       
  24 C24            1.8900    -4.3244    -5.9916 C.2     
  25 C25            2.1893    -4.7139    -7.2525 C.2     
  26 C26            3.5750    -4.6119    -7.4173 C.2     
  27 N27            4.0895    -4.1709    -6.2976 N.2     
  28 C28            4.3423    -4.9461    -8.6706 C.3     
  29 H29           -0.8202     2.0267     0.4958 H       
  30 H30           -0.8547    -0.4325     0.4865 H       
  31 H31            1.3054     3.2371     0.2617 H       
  32 H32            5.7182    -0.6886    -0.2785 H       
  33 H33            4.5029    -2.5324     0.3906 H       
  34 H34            2.7311    -2.4625     0.5452 H       
  35 H35            5.5404    -2.5232    -1.8646 H       
  36 H36            5.3116    -3.3272    -4.1795 H       
  37 H37            1.0799    -3.6281    -3.6473 H       
  38 H38            1.3195    -2.8284    -1.3320 H       
  39 H39            7.3215     3.6151    -0.4311 H       
  40 H40            0.9037    -4.2896    -5.5528 H       
  41 H41            1.4833    -5.0450    -7.9996 H       
  42 H42            4.4173    -4.0582    -9.2984 H       
  43 H43            5.3424    -5.2881    -8.4040 H       
  44 H44            3.8223    -5.7338    -9.2158 H       
@<TRIPOS>BOND
   1    1    2 ar
   2    1    6 ar
   3    1   29 1
   4    2    3 ar
   5    2   30 1
   6    3    4 ar
   7    3   23 1
   8    4    5 ar
   9    4    7 1
  10    5    6 ar
  11    5   10 1
  12    6   31 1
  13    7    8 1
  14    7   13 1
  15    8    9 2
  16    8   32 1
  17    9   10 1
  18    9   12 1
  19   10   11 2
  20   12   21 2
  21   12   22 1
  22   13   14 1
  23   13   33 1
  24   13   34 1
  25   14   15 ar
  26   14   19 ar
  27   15   16 ar
  28   15   35 1
  29   16   17 ar
  30   16   36 1
  31   17   18 ar
  32   17   20 1
  33   18   19 ar
  34   18   37 1
  35   19   38 1
  36   20   24 1
  37   20   27 1
  38   22   39 1
  39   24   25 2
  40   24   40 1
  41   25   26 1
  42   25   41 1
  43   26   28 1
  44   26   27 2
  45   28   42 1
  46   28   43 1
  47   28   44 1

#	End of record

