#	Name: ASD01912517
#	Creating user name:	WinNT
#	Creation time:	15. 06. 2019 19:59

#	Modifying user name:	WinNT
#	Modification time:	15. 06. 2019 19:59

#	Program:	/corina/corina34_cracker 3.40 0067  02.08.2006

@<TRIPOS>MOLECULE
ASD01912517
  34   36    0    0    0
SMALL
NO_CHARGES


@<TRIPOS>ATOM
   1 C1            -0.0169     1.3930     0.0097 C.ar    
   2 C2             0.0021    -0.0041     0.0020 C.ar    
   3 N3             1.1561    -0.6575    -0.0158 N.ar    
   4 C4             2.3241    -0.0315    -0.0275 C.ar    
   5 C5             2.3737     1.3456    -0.0140 C.ar    
   6 C6             1.1850     2.0728     0.0019 C.ar    
   7 C7             3.5679    -0.8823    -0.0650 C.3     
   8 C8             4.7878    -0.0695     0.3632 C.3     
   9 C9             4.8234     1.2230    -0.4605 C.3     
  10 C10            3.6682     2.1142    -0.0082 C.3     
  11 O11            3.5581     3.2294    -0.8949 O.3     
  12 C12           -1.2300    -0.7337     0.0139 C.1     
  13 C13           -2.2402    -1.3319     0.0236 C.1     
  14 C14           -3.4723    -2.0615     0.0354 C.ar    
  15 C15           -3.4609    -3.4589     0.0278 C.ar    
  16 C16           -4.6919    -1.3796     0.0604 C.ar    
  17 C17           -5.8745    -2.0891     0.0717 C.ar    
  18 C18           -5.8555    -3.4727     0.0583 C.ar    
  19 C19           -4.6516    -4.1548     0.0393 C.ar    
  20 H20           -0.9534     1.9307     0.0171 H       
  21 H21            1.2035     3.1527     0.0076 H       
  22 H22            3.4449    -1.7288     0.6106 H       
  23 H23            3.7202    -1.2518    -1.0791 H       
  24 H24            4.7124     0.1735     1.4231 H       
  25 H25            5.6946    -0.6458     0.1800 H       
  26 H26            5.7702     1.7374    -0.2958 H       
  27 H27            4.7124     0.9871    -1.5189 H       
  28 H28            3.8669     2.4760     1.0006 H       
  29 H29            2.8439     3.8414    -0.6703 H       
  30 H30           -2.5221    -3.9925     0.0127 H       
  31 H31           -4.7082    -0.2998     0.0713 H       
  32 H32           -6.8178    -1.5635     0.0913 H       
  33 H33           -6.7847    -4.0230     0.0672 H       
  34 H34           -4.6444    -5.2347     0.0289 H       
@<TRIPOS>BOND
   1    1    2 ar
   2    1    6 ar
   3    1   20 1
   4    2    3 ar
   5    2   12 1
   6    3    4 ar
   7    4    5 ar
   8    4    7 1
   9    5    6 ar
  10    5   10 1
  11    6   21 1
  12    7    8 1
  13    7   22 1
  14    7   23 1
  15    8    9 1
  16    8   24 1
  17    8   25 1
  18    9   10 1
  19    9   26 1
  20    9   27 1
  21   10   11 1
  22   10   28 1
  23   11   29 1
  24   12   13 3
  25   13   14 1
  26   14   15 ar
  27   14   16 ar
  28   15   19 ar
  29   15   30 1
  30   16   17 ar
  31   16   31 1
  32   17   18 ar
  33   17   32 1
  34   18   19 ar
  35   18   33 1
  36   19   34 1

#	End of record

