#	Name: ASD01811866
#	Creating user name:	WinNT
#	Creation time:	15. 06. 2019 19:27

#	Modifying user name:	WinNT
#	Modification time:	15. 06. 2019 19:27

#	Program:	/corina/corina34_cracker 3.40 0067  02.08.2006

@<TRIPOS>MOLECULE
ASD01811866
  53   57    0    0    0
SMALL
NO_CHARGES


@<TRIPOS>ATOM
   1 N1            -0.0158     1.3124     0.0093 N.ar    
   2 C2             0.0021    -0.0041     0.0020 C.ar    
   3 C3             1.1968    -0.7055    -0.0132 C.ar    
   4 C4             2.3959    -0.0149    -0.0209 C.ar    
   5 C5             1.1067     2.0194     0.0023 C.ar    
   6 C6             1.4022     3.4636     0.0068 C.2     
   7 C7             2.3561     1.3764    -0.0130 C.ar    
   8 N8             3.3288     2.3533    -0.0175 N.pl3   
   9 C9             2.7617     3.5823    -0.0058 C.2     
  10 C10            0.4245     4.5603     0.0214 C.2     
  11 O11           -0.7668     4.3132     0.0313 O.2     
  12 N12            0.8473     5.8400     0.0239 N.am    
  13 C13            4.7713     2.0977    -0.0324 C.3     
  14 C14            5.2309     1.8949    -1.4532 C.ar    
  15 C15            5.6497     0.4379    -3.3066 C.ar    
  16 C16            5.2286     0.6269    -2.0048 C.ar    
  17 C17            5.6487     2.9780    -2.2044 C.ar    
  18 C18            6.0701     2.7954    -3.5070 C.ar    
  19 C19            6.0743     1.5227    -4.0618 C.ar    
  20 N20            6.5023     1.3340    -5.3833 N.pl3   
  21 C21            6.9384     2.2992    -6.2241 C.2     
  22 C22            7.2561     1.7085    -7.3994 C.2     
  23 C23            7.0065     0.3375    -7.2739 C.2     
  24 N24            6.5598     0.1114    -6.0647 N.2     
  25 C25           -0.1275     6.9335     0.0384 C.3     
  26 C26            0.6099     8.2741     0.0383 C.3     
  27 O27            1.2535     8.4938    -1.2359 O.3     
  28 C28           -0.3937     9.4399     0.1797 C.3     
  29 C29            0.1867    10.5472    -0.7283 C.3     
  30 C30            1.4723     9.9194    -1.3109 C.3     
  31 H31           -0.9315    -0.5470     0.0084 H       
  32 H32            1.1923    -1.7855    -0.0186 H       
  33 H33            3.3386    -0.5419    -0.0324 H       
  34 H34            3.3036     4.5165    -0.0066 H       
  35 H35            1.7971     6.0370     0.0160 H       
  36 H36            5.2957     2.9493     0.4011 H       
  37 H37            4.9877     1.2026     0.5508 H       
  38 H38            5.6481    -0.5528    -3.7367 H       
  39 H39            4.8976    -0.2165    -1.4170 H       
  40 H40            5.6452     3.9678    -1.7723 H       
  41 H41            6.3956     3.6418    -4.0936 H       
  42 H42            7.0183     3.3523    -5.9983 H       
  43 H43            7.6355     2.2073    -8.2790 H       
  44 H44            7.1598    -0.4066    -8.0415 H       
  45 H45           -0.7611     6.8673    -0.8460 H       
  46 H46           -0.7445     6.8584     0.9339 H       
  47 H47            1.3421     8.3037     0.8452 H       
  48 H48           -1.3812     9.1383    -0.1695 H       
  49 H49           -0.4408     9.7800     1.2142 H       
  50 H50           -0.5139    10.7929    -1.5264 H       
  51 H51            0.4265    11.4347    -0.1427 H       
  52 H52            2.3379    10.2025    -0.7120 H       
  53 H53            1.6094    10.2282    -2.3472 H       
@<TRIPOS>BOND
   1    1    2 ar
   2    1    5 ar
   3    2    3 ar
   4    2   31 1
   5    3    4 ar
   6    3   32 1
   7    4    7 ar
   8    4   33 1
   9    5    7 ar
  10    5    6 1
  11    6    9 2
  12    6   10 1
  13    7    8 1
  14    8    9 1
  15    8   13 1
  16    9   34 1
  17   10   11 2
  18   10   12 am
  19   12   25 1
  20   12   35 1
  21   13   14 1
  22   13   36 1
  23   13   37 1
  24   14   17 ar
  25   14   16 ar
  26   15   16 ar
  27   15   19 ar
  28   15   38 1
  29   16   39 1
  30   17   18 ar
  31   17   40 1
  32   18   19 ar
  33   18   41 1
  34   19   20 1
  35   20   21 1
  36   20   24 1
  37   21   22 2
  38   21   42 1
  39   22   23 1
  40   22   43 1
  41   23   24 2
  42   23   44 1
  43   25   26 1
  44   25   45 1
  45   25   46 1
  46   26   28 1
  47   26   27 1
  48   26   47 1
  49   27   30 1
  50   28   29 1
  51   28   48 1
  52   28   49 1
  53   29   30 1
  54   29   50 1
  55   29   51 1
  56   30   52 1
  57   30   53 1

#	End of record

