#	Name: ASD02508238
#	Creating user name:	WinNT
#	Creation time:	15. 06. 2019 20:24

#	Modifying user name:	WinNT
#	Modification time:	15. 06. 2019 20:24

#	Program:	/corina/corina34_cracker 3.40 0067  02.08.2006

@<TRIPOS>MOLECULE
ASD02508238
  52   55    0    0    0
SMALL
NO_CHARGES


@<TRIPOS>ATOM
   1 C1            -7.0499     1.2412    -1.9757 C.ar    
   2 C2            -6.0672     2.0557    -1.4137 C.ar    
   3 C3            -4.9581     1.4803    -0.8136 C.ar    
   4 C4            -4.8313     0.1055    -0.7749 C.ar    
   5 C5            -5.8069    -0.7020    -1.3334 C.ar    
   6 C6            -6.9183    -0.1379    -1.9287 C.ar    
   7 S7            -3.4207    -0.6239    -0.0115 S.o2    
   8 N8            -3.7727    -0.8061     1.5963 N.am    
   9 C9            -4.0160     0.3201     2.3916 C.ar    
  10 N10           -8.0244     2.0930    -2.4951 N.am    
  11 C11           -7.6301     3.3579    -2.2482 C.2     
  12 O12           -6.4554     3.3412    -1.5990 O.3     
  13 O13           -3.3067    -1.9346    -0.5484 O.2     
  14 O14           -2.3797     0.3404    -0.0876 O.2     
  15 C15           -9.2523     1.6870    -3.1834 C.3     
  16 O16           -8.2434     4.3591    -2.5645 O.2     
  17 C17           -5.0960     0.3336     3.2643 C.ar    
  18 C18           -3.1740     1.4214     2.3119 C.ar    
  19 C19           -3.4140     2.5322     3.0964 C.ar    
  20 C20           -4.4976     2.5481     3.9646 C.ar    
  21 C21           -5.3361     1.4444     4.0487 C.ar    
  22 N22           -4.7406     3.6741     4.7602 N.am    
  23 S23           -6.2796     4.2676     4.9072 S.o2    
  24 C24           -6.8071     4.7536     3.2978 C.ar    
  25 C25           -7.8727     4.1124     2.6968 C.ar    
  26 C26           -8.2877     4.4941     1.4330 C.ar    
  27 C27           -7.6361     5.5179     0.7689 C.ar    
  28 C28           -6.5697     6.1617     1.3667 C.ar    
  29 C29           -6.1559     5.7844     2.6357 C.ar    
  30 O30           -5.1074     6.4168     3.2256 O.3     
  31 C31           -4.5481     7.5327     2.5299 C.3     
  32 Cl32          -9.6273     3.6867     0.6798 Cl      
  33 O33           -7.0990     3.1693     5.2834 O.2     
  34 O34           -6.1784     5.4600     5.6734 O.2     
  35 H35           -4.1938     2.1062    -0.3771 H       
  36 H36           -5.7008    -1.7763    -1.3001 H       
  37 H37           -7.6789    -0.7694    -2.3636 H       
  38 H38           -3.8103    -1.6931     1.9871 H       
  39 H39          -10.0540     1.5658    -2.4549 H       
  40 H40           -9.5324     2.4515    -3.9081 H       
  41 H41           -9.0841     0.7417    -3.6992 H       
  42 H42           -5.7485    -0.5246     3.3292 H       
  43 H43           -2.3312     1.4090     1.6367 H       
  44 H44           -2.7587     3.3885     3.0349 H       
  45 H45           -6.1789     1.4568     4.7239 H       
  46 H46           -4.0075     4.1067     5.2254 H       
  47 H47           -8.3822     3.3125     3.2135 H       
  48 H48           -7.9609     5.8139    -0.2177 H       
  49 H49           -6.0610     6.9607     0.8478 H       
  50 H50           -3.6766     7.8993     3.0723 H       
  51 H51           -4.2491     7.2237     1.5283 H       
  52 H52           -5.2919     8.3263     2.4585 H       
@<TRIPOS>BOND
   1    1    2 ar
   2    1   10 1
   3    1    6 ar
   4    2    3 ar
   5    2   12 1
   6    3    4 ar
   7    3   35 1
   8    4    5 ar
   9    4    7 1
  10    5    6 ar
  11    5   36 1
  12    6   37 1
  13    7    8 am
  14    7   13 2
  15    7   14 2
  16    8    9 1
  17    8   38 1
  18    9   17 ar
  19    9   18 ar
  20   10   11 am
  21   10   15 1
  22   11   12 1
  23   11   16 2
  24   15   39 1
  25   15   40 1
  26   15   41 1
  27   17   21 ar
  28   17   42 1
  29   18   19 ar
  30   18   43 1
  31   19   20 ar
  32   19   44 1
  33   20   21 ar
  34   20   22 1
  35   21   45 1
  36   22   23 am
  37   22   46 1
  38   23   24 1
  39   23   33 2
  40   23   34 2
  41   24   25 ar
  42   24   29 ar
  43   25   26 ar
  44   25   47 1
  45   26   27 ar
  46   26   32 1
  47   27   28 ar
  48   27   48 1
  49   28   29 ar
  50   28   49 1
  51   29   30 1
  52   30   31 1
  53   31   50 1
  54   31   51 1
  55   31   52 1

#	End of record

