#	Name: ASD00731014
#	Creating user name:	WinNT
#	Creation time:	15. 06. 2019 18:37

#	Modifying user name:	WinNT
#	Modification time:	15. 06. 2019 18:37

#	Program:	/corina/corina34_cracker 3.40 0067  02.08.2006

@<TRIPOS>MOLECULE
ASD00731014
 289  292    0    0    0
SMALL
NO_CHARGES


@<TRIPOS>ATOM
   1 C1            -5.1861     2.7327    10.1628 C.2     
   2 O2            -4.1921     2.1946     9.7231 O.2     
   3 N3            -3.7955     3.3317    12.0593 N.am    
   4 C4            -5.1109     3.5235    11.4434 C.3     
   5 C5            -5.3198     5.0083    11.1389 C.3     
   6 C6            -5.2582     5.8095    12.4409 C.3     
   7 O7            -4.2951     5.4614    10.2519 O.3     
   8 C8            -7.5825     2.4734     7.4145 C.2     
   9 O9            -8.3067     3.3210     7.8920 O.2     
  10 N10           -6.3568     2.6279     9.5033 N.am    
  11 C11           -6.4073     1.9553     8.2028 C.3     
  12 C12           -6.5596     0.4476     8.4140 C.3     
  13 C13           -5.3275    -0.0914     9.0941 C.ar    
  14 C14           -5.2656    -0.1377    10.4746 C.ar    
  15 C15           -4.1371    -0.6309    11.1004 C.ar    
  16 C16           -3.0656    -1.0804    10.3425 C.ar    
  17 O17           -1.9545    -1.5664    10.9558 O.3     
  18 C18           -3.1303    -1.0332     8.9575 C.ar    
  19 C19           -4.2631    -0.5440     8.3364 C.ar    
  20 C20           -9.4025     1.4580     4.4112 C.2     
  21 O21           -8.8134     0.4001     4.3442 O.2     
  22 N22           -7.8289     1.9948     6.1789 N.am    
  23 C23           -8.9714     2.4984     5.4127 C.3     
  24 C24           -8.5680     3.7780     4.6772 C.3     
  25 O25           -7.5659     3.4730     3.7052 O.3     
  26 C26          -11.5649     1.3638     1.4654 C.2     
  27 O27          -11.7025     2.5688     1.4588 O.2     
  28 N28          -10.4427     1.7033     3.5901 N.am    
  29 C29          -10.8618     0.6920     2.6166 C.3     
  30 C30          -11.8149    -0.2985     3.2884 C.3     
  31 C31          -11.1448    -0.8885     4.5308 C.3     
  32 O32          -13.0141     0.3786     3.6700 O.3     
  33 C33          -14.0998     1.5016    -0.4964 C.2     
  34 O34          -14.6108     1.1400     0.5424 O.2     
  35 N35          -12.0409     0.6256     0.4431 N.am    
  36 C36          -12.6263     1.2854    -0.7266 C.3     
  37 C37          -12.4268     0.4049    -1.9618 C.3     
  38 C38          -10.9541     0.2766    -2.2547 C.2     
  39 O39          -10.1437     0.7615    -1.5010 O.2     
  40 O40          -10.5426    -0.3765    -3.3528 O.3     
  41 C41          -16.9908     2.3925    -2.5485 C.2     
  42 O42          -16.3612     2.2884    -3.5799 O.2     
  43 N43          -14.8499     2.0966    -1.4450 N.am    
  44 C44          -16.2824     2.3067    -1.2212 C.3     
  45 C45          -16.4918     3.6091    -0.4462 C.3     
  46 C46          -15.8794     3.4762     0.9496 C.3     
  47 C47          -16.0889     4.7786     1.7246 C.3     
  48 N48          -15.5024     4.6513     3.0611 N.pl3   
  49 C49          -15.5687     5.7031     3.9439 C.2     
  50 N50          -16.1532     6.8136     3.5918 N.2     
  51 N51          -15.0183     5.5836     5.1981 N.pl3   
  52 C52          -20.3145     3.4755    -3.6547 C.2     
  53 O53          -20.7673     3.5743    -2.5339 O.2     
  54 N54          -18.3241     2.5850    -2.5895 N.am    
  55 C55          -18.9972     2.7781    -3.8764 C.3     
  56 C56          -19.2442     1.4179    -4.5319 C.3     
  57 C57          -19.9278     1.6207    -5.8856 C.3     
  58 C58          -18.9748     2.3512    -6.8338 C.3     
  59 C59          -20.2953     0.2598    -6.4804 C.3     
  60 C60          -23.0947     4.5492    -5.7715 C.2     
  61 O61          -22.6169     4.0304    -6.7582 O.2     
  62 N62          -20.9895     3.9896    -4.7019 N.am    
  63 C63          -22.2977     4.6153    -4.4942 C.3     
  64 C64          -22.1049     6.0779    -4.0885 C.3     
  65 C65          -21.4052     6.1422    -2.7294 C.3     
  66 C66          -21.2123     7.6048    -2.3238 C.3     
  67 N67          -20.5423     7.6664    -1.0225 N.pl3   
  68 C68          -20.2613     8.8848    -0.4510 C.2     
  69 N69          -20.5910     9.9852    -1.0669 N.2     
  70 N70          -19.6325     8.9426     0.7703 N.pl3   
  71 C71          -26.1310     6.1133    -7.0742 C.2     
  72 O72          -26.2024     6.8831    -6.1398 O.2     
  73 N73          -24.3384     5.0665    -5.8174 N.am    
  74 C74          -25.1131     5.0022    -7.0591 C.3     
  75 C75          -25.8295     3.6529    -7.1440 C.3     
  76 C76          -24.7942     2.5318    -7.2543 C.3     
  77 C77          -25.5106     1.1826    -7.3392 C.3     
  78 C78          -24.4753     0.0615    -7.4495 C.3     
  79 N79          -25.1632    -1.2340    -7.5309 N.3     
  80 C80          -29.1041     6.9451    -9.0318 C.2     
  81 O81          -29.0992     5.8730    -9.5987 O.2     
  82 N82          -26.9622     6.2515    -8.1262 N.am    
  83 C83          -27.9518     7.3317    -8.1409 C.3     
  84 C84          -27.3026     8.6109    -8.6728 C.3     
  85 C85          -26.2305     9.0654    -7.7163 C.2     
  86 C86          -26.3685     9.9684    -6.7327 C.2     
  87 N87          -25.1803    10.1243    -6.0722 N.pl3   
  88 C88          -24.2243     9.3045    -6.6289 C.ar    
  89 C89          -22.8814     9.0733    -6.3505 C.ar    
  90 C90          -22.1721     8.1658    -7.1069 C.ar    
  91 C91          -22.7842     7.4786    -8.1458 C.ar    
  92 C92          -24.1025     7.6908    -8.4370 C.ar    
  93 C93          -24.8416     8.6010    -7.6795 C.ar    
  94 C94          -31.9397     8.6595   -10.5756 C.2     
  95 O95          -31.5286     9.7526   -10.2485 O.2     
  96 N96          -30.1401     7.7909    -9.1986 N.am    
  97 C97          -31.2603     7.4151   -10.0647 C.3     
  98 C98          -32.2625     6.5776    -9.2678 C.3     
  99 C99          -31.6093     5.2570    -8.8551 C.3     
 100 S100         -32.7975     4.2640    -7.9102 S.3     
 101 C101         -31.8551     2.7646    -7.5174 C.3     
 102 C102         -35.0964     9.4513   -12.2404 C.2     
 103 O103         -35.5232     8.3263   -12.0882 O.2     
 104 N104         -33.0041     8.5577   -11.3961 N.am    
 105 C105         -33.6645     9.7674   -11.8927 C.3     
 106 C106         -32.9359    10.2705   -13.1405 C.3     
 107 C107         -31.5410    10.7022   -12.7678 C.ar    
 108 C108         -30.5013     9.7922   -12.8102 C.ar    
 109 C109         -29.2218    10.1882   -12.4683 C.ar    
 110 C110         -28.9818    11.4943   -12.0845 C.ar    
 111 C111         -30.0213    12.4046   -12.0430 C.ar    
 112 C112         -31.3001    12.0097   -12.3891 C.ar    
 113 C113         -37.3616     9.5610   -14.4595 C.2     
 114 O114         -36.3504     9.4380   -15.1093 O.2     
 115 N115         -35.9027    10.4188   -12.7203 N.am    
 116 C116         -37.2946    10.1115   -13.0583 C.3     
 117 C117         -38.1343    11.3875   -12.9710 C.3     
 118 C118         -39.6076    11.0454   -13.2014 C.3     
 119 C119         -40.4610    12.2978   -12.9913 C.3     
 120 C120         -37.6679    12.3790   -14.0388 C.3     
 121 O121         -38.5447     9.2074   -14.9859 O.3     
 122 C122          -3.6439     3.4930    13.3887 C.2     
 123 O123          -4.5964     3.7970    14.0752 O.2     
 124 C124           6.6079     3.5848    29.0757 C.3     
 125 C125           5.2342     3.7851    28.4325 C.3     
 126 C126           5.3366     3.5435    26.9252 C.3     
 127 C127           3.9629     3.7438    26.2820 C.3     
 128 C128           4.0654     3.5022    24.7747 C.3     
 129 C129           2.6917     3.7025    24.1315 C.3     
 130 C130           2.7942     3.4609    22.6242 C.3     
 131 C131           1.4204     3.6612    21.9810 C.3     
 132 C132           1.5229     3.4196    20.4737 C.3     
 133 C133           0.1492     3.6199    19.8305 C.3     
 134 C134           0.2517     3.3783    18.3232 C.3     
 135 C135          -1.1220     3.5786    17.6800 C.3     
 136 C136          -1.0196     3.3370    16.1727 C.3     
 137 C137          -2.3933     3.5373    15.5295 C.3     
 138 C138          -2.2908     3.2957    14.0222 C.3     
 139 H139          -3.0337     3.0885    11.5102 H       
 140 H140          -5.8863     3.1805    12.1284 H       
 141 H141          -6.2940     5.1497    10.6710 H       
 142 H142          -4.2526     5.7495    12.8572 H       
 143 H143          -5.5060     6.8515    12.2384 H       
 144 H144          -5.9721     5.3984    13.1546 H       
 145 H145          -4.2747     4.9964     9.4043 H       
 146 H146          -7.1659     2.9979     9.8897 H       
 147 H147          -5.4862     2.1542     7.6549 H       
 148 H148          -7.4326     0.2544     9.0374 H       
 149 H149          -6.6862    -0.0435     7.4492 H       
 150 H150          -6.1001     0.2123    11.0641 H       
 151 H151          -4.0890    -0.6662    12.1788 H       
 152 H152          -1.9815    -2.5187    11.1217 H       
 153 H153          -2.2973    -1.3822     8.3653 H       
 154 H154          -4.3158    -0.5111     7.2582 H       
 155 H155          -7.2497     1.3168     5.7970 H       
 156 H156          -9.7971     2.7140     6.0908 H       
 157 H157          -9.4404     4.2011     4.1791 H       
 158 H158          -8.1728     4.4990     5.3927 H       
 159 H159          -7.2621     4.2393     3.1998 H       
 160 H160         -10.9139     2.5495     3.6437 H       
 161 H161          -9.9859     0.1592     2.2463 H       
 162 H162         -12.0567    -1.1003     2.5907 H       
 163 H163         -11.8239    -1.5941     5.0094 H       
 164 H164         -10.2302    -1.4049     4.2397 H       
 165 H165         -10.9030    -0.0867     5.2285 H       
 166 H166         -13.6658    -0.1896     4.1031 H       
 167 H167         -11.9959    -0.3426     0.4819 H       
 168 H168         -12.1381     2.2473    -0.8833 H       
 169 H169         -12.8477    -0.5831    -1.7756 H       
 170 H170         -12.9289     0.8586    -2.8163 H       
 171 H171          -9.5883    -0.4328    -3.4984 H       
 172 H172         -14.4412     2.3858    -2.2758 H       
 173 H173         -16.6865     1.4731    -0.6469 H       
 174 H174         -16.0100     4.4298    -0.9777 H       
 175 H175         -17.5592     3.8111    -0.3568 H       
 176 H176         -16.3612     2.6555     1.4811 H       
 177 H177         -14.8120     3.2742     0.8602 H       
 178 H178         -15.6070     5.5992     1.1931 H       
 179 H179         -17.1563     4.9806     1.8140 H       
 180 H180         -15.0674     3.8248     3.3231 H       
 181 H181         -16.2000     7.5558     4.2147 H       
 182 H182         -14.5833     4.7572     5.4601 H       
 183 H183         -15.0651     6.3258     5.8210 H       
 184 H184         -18.8382     2.5956    -1.7670 H       
 185 H185         -18.3690     3.3863    -4.5273 H       
 186 H186         -18.2926     0.9069    -4.6783 H       
 187 H187         -19.8849     0.8153    -3.8880 H       
 188 H188         -20.8320     2.2144    -5.7507 H       
 189 H189         -19.4880     2.5645    -7.7715 H       
 190 H190         -18.6520     3.2859    -6.3754 H       
 191 H191         -18.1056     1.7235    -7.0300 H       
 192 H192         -20.9742    -0.2606    -5.8048 H       
 193 H193         -20.7823     0.4043    -7.4448 H       
 194 H194         -19.3911    -0.3339    -6.6152 H       
 195 H195         -20.6090     3.9453    -5.5930 H       
 196 H196         -22.8321     4.0868    -3.7048 H       
 197 H197         -21.4944     6.5848    -4.8359 H       
 198 H198         -23.0765     6.5672    -4.0204 H       
 199 H199         -22.0156     5.6354    -1.9821 H       
 200 H200         -20.4335     5.6530    -2.7975 H       
 201 H201         -20.6019     8.1117    -3.0711 H       
 202 H202         -22.1840     8.0941    -2.2557 H       
 203 H203         -20.2969     6.8475    -0.5640 H       
 204 H204         -20.3927    10.8448    -0.6637 H       
 205 H205         -19.3871     8.1238     1.2287 H       
 206 H206         -19.4342     9.8023     1.1735 H       
 207 H207         -24.7205     5.4814    -5.0283 H       
 208 H208         -24.4428     5.1119    -7.9117 H       
 209 H209         -26.4318     3.5044    -6.2477 H       
 210 H210         -26.4751     3.6390    -8.0221 H       
 211 H211         -24.1919     2.6804    -8.1506 H       
 212 H212         -24.1486     2.5458    -6.3762 H       
 213 H213         -26.1129     1.0340    -6.4429 H       
 214 H214         -26.1563     1.1686    -8.2173 H       
 215 H215         -23.8730     0.2100    -8.3457 H       
 216 H216         -23.8297     0.0754    -6.5714 H       
 217 H217         -25.8162    -1.2489    -8.3000 H       
 218 H218         -24.5005    -1.9913    -7.6046 H       
 219 H219         -26.9051     5.6358    -8.8736 H       
 220 H220         -28.3171     7.5035    -7.1284 H       
 221 H221         -26.8591     8.4145    -9.6490 H       
 222 H222         -28.0591     9.3899    -8.7676 H       
 223 H223         -27.2821    10.4943    -6.4976 H       
 224 H224         -25.0334    10.7231    -5.3234 H       
 225 H225         -22.3960     9.6034    -5.5444 H       
 226 H226         -21.1293     7.9879    -6.8894 H       
 227 H227         -22.2140     6.7707    -8.7291 H       
 228 H228         -24.5720     7.1526    -9.2471 H       
 229 H229         -30.1440     8.6484    -8.7452 H       
 230 H230         -30.8885     6.8322   -10.9073 H       
 231 H231         -32.5672     7.1263    -8.3766 H       
 232 H232         -33.1372     6.3729    -9.8852 H       
 233 H233         -31.3046     4.7083    -9.7462 H       
 234 H234         -30.7347     5.4617    -8.2376 H       
 235 H235         -32.4804     2.0831    -6.9408 H       
 236 H236         -31.5443     2.2782    -8.4420 H       
 237 H237         -30.9743     3.0316    -6.9335 H       
 238 H238         -33.3329     7.6834   -11.6577 H       
 239 H239         -33.6393    10.5376   -11.1219 H       
 240 H240         -32.8835     9.4698   -13.8783 H       
 241 H241         -33.4781    11.1173   -13.5612 H       
 242 H242         -30.6887     8.7717   -13.1100 H       
 243 H243         -28.4096     9.4770   -12.5007 H       
 244 H244         -27.9823    11.8035   -11.8167 H       
 245 H245         -29.8339    13.4250   -11.7429 H       
 246 H246         -32.1116    12.7217   -12.3602 H       
 247 H247         -35.5613    11.3185   -12.8420 H       
 248 H248         -37.6837     9.3720   -12.3584 H       
 249 H249         -38.0151    11.8341   -11.9838 H       
 250 H250         -39.7410    10.6815   -14.2202 H       
 251 H251         -39.9158    10.2732   -12.4965 H       
 252 H252         -40.1527    13.0699   -13.6961 H       
 253 H253         -41.5106    12.0540   -13.1555 H       
 254 H254         -40.3275    12.6616   -11.9725 H       
 255 H255         -38.2661    13.2881   -13.9766 H       
 256 H256         -36.6183    12.6228   -13.8747 H       
 257 H257         -37.7871    11.9325   -15.0260 H       
 258 H258         -38.5374     8.8594   -15.8880 H       
 259 H259           6.9493     2.5658    28.8935 H       
 260 H260           7.3182     4.2889    28.6423 H       
 261 H261           6.5349     3.7569    30.1495 H       
 262 H262           4.5239     3.0810    28.8659 H       
 263 H263           4.8928     4.8041    28.6147 H       
 264 H264           6.0469     4.2476    26.4918 H       
 265 H265           5.6780     2.5245    26.7430 H       
 266 H266           3.2526     3.0397    26.7154 H       
 267 H267           3.6216     4.7628    26.4642 H       
 268 H268           4.7757     4.2063    24.3413 H       
 269 H269           4.4068     2.4832    24.5925 H       
 270 H270           1.9814     2.9984    24.5649 H       
 271 H271           2.3503     4.7215    24.3137 H       
 272 H272           3.5044     4.1650    22.1908 H       
 273 H273           3.1355     2.4419    22.4420 H       
 274 H274           0.7102     2.9571    22.4144 H       
 275 H275           1.0791     4.6802    22.1632 H       
 276 H276           2.2332     4.1237    20.0403 H       
 277 H277           1.8643     2.4006    20.2915 H       
 278 H278          -0.5611     2.9158    20.2639 H       
 279 H279          -0.1922     4.6389    20.0128 H       
 280 H280           0.9620     4.0824    17.8898 H       
 281 H281           0.5930     2.3593    18.1410 H       
 282 H282          -1.8323     2.8745    18.1134 H       
 283 H283          -1.4634     4.5976    17.8623 H       
 284 H284          -0.3093     4.0411    15.7393 H       
 285 H285          -0.6782     2.3180    15.9905 H       
 286 H286          -3.1036     2.8332    15.9629 H       
 287 H287          -2.7347     4.5563    15.7118 H       
 288 H288          -1.9495     2.2767    13.8400 H       
 289 H289          -1.5805     3.9998    13.5888 H       
@<TRIPOS>BOND
   1    1    2 2
   2    1    4 1
   3    1   10 am
   4    3  122 am
   5    3    4 1
   6    3  139 1
   7    4    5 1
   8    4  140 1
   9    5    6 1
  10    5    7 1
  11    5  141 1
  12    6  142 1
  13    6  143 1
  14    6  144 1
  15    7  145 1
  16    8    9 2
  17    8   11 1
  18    8   22 am
  19   10   11 1
  20   10  146 1
  21   11   12 1
  22   11  147 1
  23   12   13 1
  24   12  148 1
  25   12  149 1
  26   13   14 ar
  27   13   19 ar
  28   14   15 ar
  29   14  150 1
  30   15   16 ar
  31   15  151 1
  32   16   17 1
  33   16   18 ar
  34   17  152 1
  35   18   19 ar
  36   18  153 1
  37   19  154 1
  38   20   21 2
  39   20   23 1
  40   20   28 am
  41   22   23 1
  42   22  155 1
  43   23   24 1
  44   23  156 1
  45   24   25 1
  46   24  157 1
  47   24  158 1
  48   25  159 1
  49   26   27 2
  50   26   29 1
  51   26   35 am
  52   28   29 1
  53   28  160 1
  54   29   30 1
  55   29  161 1
  56   30   31 1
  57   30   32 1
  58   30  162 1
  59   31  163 1
  60   31  164 1
  61   31  165 1
  62   32  166 1
  63   33   34 2
  64   33   36 1
  65   33   43 am
  66   35   36 1
  67   35  167 1
  68   36   37 1
  69   36  168 1
  70   37   38 1
  71   37  169 1
  72   37  170 1
  73   38   39 2
  74   38   40 1
  75   40  171 1
  76   41   42 2
  77   41   44 1
  78   41   54 am
  79   43   44 1
  80   43  172 1
  81   44   45 1
  82   44  173 1
  83   45   46 1
  84   45  174 1
  85   45  175 1
  86   46   47 1
  87   46  176 1
  88   46  177 1
  89   47   48 1
  90   47  178 1
  91   47  179 1
  92   48   49 1
  93   48  180 1
  94   49   50 2
  95   49   51 1
  96   50  181 1
  97   51  182 1
  98   51  183 1
  99   52   53 2
 100   52   55 1
 101   52   62 am
 102   54   55 1
 103   54  184 1
 104   55   56 1
 105   55  185 1
 106   56   57 1
 107   56  186 1
 108   56  187 1
 109   57   58 1
 110   57   59 1
 111   57  188 1
 112   58  189 1
 113   58  190 1
 114   58  191 1
 115   59  192 1
 116   59  193 1
 117   59  194 1
 118   60   61 2
 119   60   63 1
 120   60   73 am
 121   62   63 1
 122   62  195 1
 123   63   64 1
 124   63  196 1
 125   64   65 1
 126   64  197 1
 127   64  198 1
 128   65   66 1
 129   65  199 1
 130   65  200 1
 131   66   67 1
 132   66  201 1
 133   66  202 1
 134   67   68 1
 135   67  203 1
 136   68   69 2
 137   68   70 1
 138   69  204 1
 139   70  205 1
 140   70  206 1
 141   71   72 2
 142   71   74 1
 143   71   82 am
 144   73   74 1
 145   73  207 1
 146   74   75 1
 147   74  208 1
 148   75   76 1
 149   75  209 1
 150   75  210 1
 151   76   77 1
 152   76  211 1
 153   76  212 1
 154   77   78 1
 155   77  213 1
 156   77  214 1
 157   78   79 1
 158   78  215 1
 159   78  216 1
 160   79  217 1
 161   79  218 1
 162   80   81 2
 163   80   83 1
 164   80   96 am
 165   82   83 1
 166   82  219 1
 167   83   84 1
 168   83  220 1
 169   84   85 1
 170   84  221 1
 171   84  222 1
 172   85   86 2
 173   85   93 1
 174   86   87 1
 175   86  223 1
 176   87   88 1
 177   87  224 1
 178   88   89 ar
 179   88   93 ar
 180   89   90 ar
 181   89  225 1
 182   90   91 ar
 183   90  226 1
 184   91   92 ar
 185   91  227 1
 186   92   93 ar
 187   92  228 1
 188   94   95 2
 189   94   97 1
 190   94  104 am
 191   96   97 1
 192   96  229 1
 193   97   98 1
 194   97  230 1
 195   98   99 1
 196   98  231 1
 197   98  232 1
 198   99  100 1
 199   99  233 1
 200   99  234 1
 201  100  101 1
 202  101  235 1
 203  101  236 1
 204  101  237 1
 205  102  103 2
 206  102  105 1
 207  102  115 am
 208  104  105 1
 209  104  238 1
 210  105  106 1
 211  105  239 1
 212  106  107 1
 213  106  240 1
 214  106  241 1
 215  107  108 ar
 216  107  112 ar
 217  108  109 ar
 218  108  242 1
 219  109  110 ar
 220  109  243 1
 221  110  111 ar
 222  110  244 1
 223  111  112 ar
 224  111  245 1
 225  112  246 1
 226  113  114 2
 227  113  116 1
 228  113  121 1
 229  115  116 1
 230  115  247 1
 231  116  117 1
 232  116  248 1
 233  117  118 1
 234  117  120 1
 235  117  249 1
 236  118  119 1
 237  118  250 1
 238  118  251 1
 239  119  252 1
 240  119  253 1
 241  119  254 1
 242  120  255 1
 243  120  256 1
 244  120  257 1
 245  121  258 1
 246  122  123 2
 247  122  138 1
 248  124  125 1
 249  124  259 1
 250  124  260 1
 251  124  261 1
 252  125  126 1
 253  125  262 1
 254  125  263 1
 255  126  127 1
 256  126  264 1
 257  126  265 1
 258  127  128 1
 259  127  266 1
 260  127  267 1
 261  128  129 1
 262  128  268 1
 263  128  269 1
 264  129  130 1
 265  129  270 1
 266  129  271 1
 267  130  131 1
 268  130  272 1
 269  130  273 1
 270  131  132 1
 271  131  274 1
 272  131  275 1
 273  132  133 1
 274  132  276 1
 275  132  277 1
 276  133  134 1
 277  133  278 1
 278  133  279 1
 279  134  135 1
 280  134  280 1
 281  134  281 1
 282  135  136 1
 283  135  282 1
 284  135  283 1
 285  136  137 1
 286  136  284 1
 287  136  285 1
 288  137  138 1
 289  137  286 1
 290  137  287 1
 291  138  288 1
 292  138  289 1

#	End of record

