#	Name: ASD01812790
#	Creating user name:	WinNT
#	Creation time:	15. 06. 2019 19:29

#	Modifying user name:	WinNT
#	Modification time:	15. 06. 2019 19:29

#	Program:	/corina/corina34_cracker 3.40 0067  02.08.2006

@<TRIPOS>MOLECULE
ASD01812790
  52   56    0    0    0
SMALL
NO_CHARGES


@<TRIPOS>ATOM
   1 N1             0.0030     1.3164    -0.2250 N.ar    
   2 C2             0.0323     0.0051    -0.3465 C.ar    
   3 N3             1.1651    -0.6757    -0.3654 N.ar    
   4 C4             2.3230    -0.0581    -0.2619 C.ar    
   5 C5             2.3512     1.3332    -0.1306 C.ar    
   6 C6             1.1254     2.0202    -0.1148 C.ar    
   7 C7             3.7591    -0.5137    -0.2478 C.3     
   8 N8             4.5727     0.6996    -0.1021 N.am    
   9 C9             3.7524     1.7636    -0.0350 C.2     
  10 C10            6.0357     0.7442    -0.0397 C.3     
  11 C11            6.5937     0.8914    -1.4319 C.ar    
  12 C12            6.8077     2.1524    -1.9586 C.ar    
  13 C13            7.3189     2.2930    -3.2330 C.ar    
  14 C14            7.6194     1.1619    -3.9889 C.ar    
  15 C15            7.4018    -0.1057    -3.4534 C.ar    
  16 C16            6.8952    -0.2348    -2.1761 C.ar    
  17 O17            1.0884     3.3667     0.0093 O.3     
  18 O18            4.1184     2.9167     0.0867 O.2     
  19 C19           -0.1200     3.9830    -0.0809 C.ar    
  20 C20           -2.5807     5.2370    -0.2653 C.ar    
  21 C21           -1.7805     5.1172    -1.3860 C.ar    
  22 C22           -0.5514     4.4915    -1.2965 C.ar    
  23 C23           -0.9278     4.0995     1.0438 C.ar    
  24 C24           -2.1567     4.7267     0.9481 C.ar    
  25 F25           -0.5135     3.6004     2.2289 F       
  26 C26           -3.9201     5.9200    -0.3671 C.3     
  27 F27           -4.9028     4.9750    -0.6808 F       
  28 F28           -4.2289     6.5256     0.8556 F       
  29 F29           -3.8721     6.8935    -1.3707 F       
  30 N30            8.4192     2.4418    -5.9779 N.2     
  31 C31            8.1689     1.3069    -5.3600 C.2     
  32 C32            8.5146     0.2544    -6.2298 C.2     
  33 C33            8.9753     0.7995    -7.3767 C.2     
  34 N34            8.9273     2.1429    -7.2485 N.pl3   
  35 C35            9.3351     3.1184    -8.2626 C.3     
  36 H36           -0.9007    -0.5319    -0.4332 H       
  37 H37            3.9314    -1.1837     0.5946 H       
  38 H38            4.0017    -1.0173    -1.1835 H       
  39 H39            6.3477     1.5932     0.5684 H       
  40 H40            6.4087    -0.1782     0.4055 H       
  41 H41            6.5741     3.0284    -1.3719 H       
  42 H42            7.4853     3.2780    -3.6434 H       
  43 H43            7.6331    -0.9858    -4.0352 H       
  44 H44            6.7300    -1.2170    -1.7584 H       
  45 H45           -2.1146     5.5165    -2.3322 H       
  46 H46            0.0729     4.3989    -2.1729 H       
  47 H47           -2.7837     4.8216     1.8223 H       
  48 H48            8.4275    -0.8008    -6.0173 H       
  49 H49            9.3212     0.2563    -8.2438 H       
  50 H50           10.3904     3.3582    -8.1325 H       
  51 H51            9.1780     2.6973    -9.2557 H       
  52 H52            8.7403     4.0253    -8.1543 H       
@<TRIPOS>BOND
   1    1    2 ar
   2    1    6 ar
   3    2    3 ar
   4    2   36 1
   5    3    4 ar
   6    4    7 1
   7    4    5 ar
   8    5    6 ar
   9    5    9 1
  10    6   17 1
  11    7    8 1
  12    7   37 1
  13    7   38 1
  14    8    9 am
  15    8   10 1
  16    9   18 2
  17   10   11 1
  18   10   39 1
  19   10   40 1
  20   11   12 ar
  21   11   16 ar
  22   12   13 ar
  23   12   41 1
  24   13   14 ar
  25   13   42 1
  26   14   15 ar
  27   14   31 1
  28   15   16 ar
  29   15   43 1
  30   16   44 1
  31   17   19 1
  32   19   23 ar
  33   19   22 ar
  34   20   21 ar
  35   20   24 ar
  36   20   26 1
  37   21   22 ar
  38   21   45 1
  39   22   46 1
  40   23   24 ar
  41   23   25 1
  42   24   47 1
  43   26   27 1
  44   26   28 1
  45   26   29 1
  46   30   31 2
  47   30   34 1
  48   31   32 1
  49   32   33 2
  50   32   48 1
  51   33   34 1
  52   33   49 1
  53   34   35 1
  54   35   50 1
  55   35   51 1
  56   35   52 1

#	End of record

