#	Name: ASD03730839
#	Creating user name:	WinNT
#	Creation time:	15. 06. 2019 20:44

#	Modifying user name:	WinNT
#	Modification time:	15. 06. 2019 20:44

#	Program:	/corina/corina34_cracker 3.40 0067  02.08.2006

@<TRIPOS>MOLECULE
ASD03730839
  70   76    0    0    0
SMALL
NO_CHARGES


@<TRIPOS>ATOM
   1 C1             0.0007     1.6190    -0.0525 C.2     
   2 C2            -0.0139     0.1564     0.1630 C.ar    
   3 C3             1.1775    -0.5700     0.1231 C.ar    
   4 C4             1.1570    -1.9343     0.3255 C.ar    
   5 C5            -0.0412    -2.5830     0.5672 C.ar    
   6 C6            -1.2254    -1.8691     0.6080 C.ar    
   7 C7            -1.2181    -0.5032     0.4130 C.ar    
   8 O8             1.0581     2.2026    -0.1892 O.2     
   9 N9            -1.1587     2.3043    -0.1029 N.am    
  10 C10            2.4831     0.1347    -0.1409 C.3     
  11 O11            2.9453    -6.8846    -1.6266 O.3     
  12 C12            3.6833    -8.1100    -1.7903 C.3     
  13 O13            4.9076    -7.6906    -2.4211 O.3     
  14 C14            5.0953    -6.3955    -2.0307 C.ar    
  15 C15            3.8881    -5.9002    -1.5432 C.ar    
  16 C16            6.2171    -5.5864    -2.0513 C.ar    
  17 C17            6.1496    -4.2755    -1.5890 C.ar    
  18 C18            4.9360    -3.7894    -1.1121 C.ar    
  19 C19            3.8172    -4.5955    -1.0845 C.ar    
  20 O20            7.1278    -3.3286    -1.5066 O.3     
  21 C21            5.1733    -2.3560    -0.7181 C.3     
  22 C22            6.5208    -2.0287    -1.3757 C.3     
  23 N23            3.5786    -0.8374    -0.1057 N.am    
  24 C24            4.0799    -1.4461    -1.1990 C.2     
  25 C25            5.2176    -2.1728     0.7700 C.ar    
  26 C26            5.9905    -2.7145     1.7727 C.ar    
  27 C27            5.7869    -2.3336     3.0870 C.ar    
  28 C28            4.8050    -1.4083     3.3913 C.ar    
  29 C29            4.0276    -0.8636     2.3906 C.ar    
  30 C30            4.2258    -1.2409     1.0647 C.ar    
  31 O31            3.7188    -1.2893    -2.3462 O.2     
  32 C32           -1.1443     3.7536    -0.3164 C.3     
  33 N33           -2.5980     5.7459    -0.5419 N.3     
  34 C34           -2.5802     4.2628    -0.4564 C.3     
  35 C35           -3.1918     3.7888    -1.7922 C.3     
  36 C36           -4.0567     4.9699    -2.2786 C.3     
  37 C37           -3.8949     6.0582    -1.1957 C.3     
  38 C38           -2.5229     6.3512     0.7945 C.3     
  39 C39           -2.1508     7.8295     0.6646 C.3     
  40 H40            2.0780    -2.4975     0.2949 H       
  41 H41           -0.0519    -3.6515     0.7243 H       
  42 H42           -2.1572    -2.3814     0.7971 H       
  43 H43           -2.1428     0.0537     0.4492 H       
  44 H44           -2.0027     1.8380     0.0023 H       
  45 H45            2.4487     0.6079    -1.1223 H       
  46 H46            2.6469     0.8945     0.6232 H       
  47 H47            3.8882    -8.5660    -0.8217 H       
  48 H48            3.1389    -8.8020    -2.4329 H       
  49 H49            7.1516    -5.9746    -2.4287 H       
  50 H50            2.8834    -4.2082    -0.7045 H       
  51 H51            7.1197    -1.3849    -0.7314 H       
  52 H52            6.3732    -1.5701    -2.3534 H       
  53 H53            6.7565    -3.4370     1.5328 H       
  54 H54            6.3935    -2.7576     3.8736 H       
  55 H55            4.6460    -1.1111     4.4173 H       
  56 H56            3.2624    -0.1420     2.6361 H       
  57 H57           -0.6670     4.2414     0.5336 H       
  58 H58           -0.5878     3.9814    -1.2255 H       
  59 H59           -3.1867     3.9232     0.3832 H       
  60 H60           -2.4040     3.5740    -2.5142 H       
  61 H61           -3.8114     2.9063    -1.6329 H       
  62 H62           -3.6934     5.3348    -3.2393 H       
  63 H63           -5.1008     4.6671    -2.3580 H       
  64 H64           -4.7088     5.9995    -0.4731 H       
  65 H65           -3.8618     7.0473    -1.6527 H       
  66 H66           -3.4904     6.2621     1.2886 H       
  67 H67           -1.7648     5.8362     1.3846 H       
  68 H68           -1.1833     7.9186     0.1705 H       
  69 H69           -2.9089     8.3445     0.0745 H       
  70 H70           -2.0950     8.2787     1.6562 H       
@<TRIPOS>BOND
   1    1    2 1
   2    1    8 2
   3    1    9 am
   4    2    3 ar
   5    2    7 ar
   6    3    4 ar
   7    3   10 1
   8    4    5 ar
   9    4   40 1
  10    5    6 ar
  11    5   41 1
  12    6    7 ar
  13    6   42 1
  14    7   43 1
  15    9   32 1
  16    9   44 1
  17   10   23 1
  18   10   45 1
  19   10   46 1
  20   11   12 1
  21   11   15 1
  22   12   13 1
  23   12   47 1
  24   12   48 1
  25   13   14 1
  26   14   15 ar
  27   14   16 ar
  28   15   19 ar
  29   16   17 ar
  30   16   49 1
  31   17   18 ar
  32   17   20 1
  33   18   19 ar
  34   18   21 1
  35   19   50 1
  36   20   22 1
  37   21   22 1
  38   21   24 1
  39   21   25 1
  40   22   51 1
  41   22   52 1
  42   23   24 am
  43   23   30 1
  44   24   31 2
  45   25   26 ar
  46   25   30 ar
  47   26   27 ar
  48   26   53 1
  49   27   28 ar
  50   27   54 1
  51   28   29 ar
  52   28   55 1
  53   29   30 ar
  54   29   56 1
  55   32   34 1
  56   32   57 1
  57   32   58 1
  58   33   34 1
  59   33   37 1
  60   33   38 1
  61   34   35 1
  62   34   59 1
  63   35   36 1
  64   35   60 1
  65   35   61 1
  66   36   37 1
  67   36   62 1
  68   36   63 1
  69   37   64 1
  70   37   65 1
  71   38   39 1
  72   38   66 1
  73   38   67 1
  74   39   68 1
  75   39   69 1
  76   39   70 1

#	End of record

