#	Name: ASD01812574
#	Creating user name:	WinNT
#	Creation time:	15. 06. 2019 19:28

#	Modifying user name:	WinNT
#	Modification time:	15. 06. 2019 19:28

#	Program:	/corina/corina34_cracker 3.40 0067  02.08.2006

@<TRIPOS>MOLECULE
ASD01812574
  54   58    0    0    0
SMALL
NO_CHARGES


@<TRIPOS>ATOM
   1 C1            -0.0178     1.4648     0.0101 C.3     
   2 N2             0.0021    -0.0041     0.0020 N.3     
   3 C3             0.4497    -0.5159    -1.2954 C.3     
   4 C4             0.5291    -2.0193    -1.2775 C.2     
   5 C5             0.9122    -2.6443    -0.1649 C.2     
   6 C6             1.2361    -1.8133     1.0153 C.ar    
   7 C7             1.9978    -2.3296     2.0673 C.ar    
   8 C8             2.4943    -3.7511     2.0044 C.3     
   9 C9             3.7883    -3.7976     1.2334 C.ar    
  10 C10            3.7801    -3.9819    -0.1409 C.ar    
  11 C11            4.9938    -4.0176    -0.8094 C.ar    
  12 C12            6.1651    -3.8693    -0.0880 C.ar    
  13 Cl13           7.6922    -3.9115    -0.9126 Cl      
  14 N14            6.1342    -3.6956     1.2199 N.ar    
  15 C15            4.9973    -3.6513     1.8866 C.ar    
  16 C16            2.2954    -1.5545     3.1516 C.ar    
  17 C17            1.8386    -0.2371     3.2147 C.ar    
  18 C18            2.1391     0.6304     4.3630 C.2     
  19 O19            2.7992     0.2276     5.3034 O.2     
  20 N20            1.6547     1.8934     4.3348 N.am    
  21 C21            0.9184     2.3295     3.2780 C.2     
  22 N22            0.6366     1.5870     2.2513 N.2     
  23 C23            1.0659     0.3034     2.1623 C.ar    
  24 C24            0.7633    -0.4978     1.0553 C.ar    
  25 C25            1.9255     2.7995     5.4537 C.3     
  26 H26            2.5245     2.2835     6.2040 H       
  27 C27            2.6872     4.0275     4.9458 C.3     
  28 C28            2.8965     5.0044     6.1058 C.3     
  29 O29            1.6288     5.3634     6.6591 O.3     
  30 C30            0.8919     4.2614     7.1927 C.3     
  31 C31            0.6021     3.2530     6.0777 C.3     
  32 H32           -0.0180     3.7236     5.3147 H       
  33 O33           -0.0823     2.1220     6.6203 O.3     
  34 H34            0.9984     1.8413     0.1264 H       
  35 H35           -0.4345     1.8277    -0.9295 H       
  36 H36           -0.6323     1.8153     0.8394 H       
  37 H37           -0.2540    -0.2028    -2.0668 H       
  38 H38            1.4345    -0.1072    -1.5220 H       
  39 H39            0.2774    -2.5874    -2.1609 H       
  40 H40            0.9836    -3.7213    -0.1260 H       
  41 H41            2.6603    -4.1230     3.0155 H       
  42 H42            1.7516    -4.3737     1.5056 H       
  43 H43            2.8499    -4.0952    -0.6778 H       
  44 H44            5.0249    -4.1598    -1.8795 H       
  45 H45            5.0113    -3.5033     2.9563 H       
  46 H46            2.8841    -1.9611     3.9606 H       
  47 H47            0.5494     3.3444     3.2939 H       
  48 H48            3.6550     3.7183     4.5509 H       
  49 H49            2.1105     4.5143     4.1592 H       
  50 H50            3.5074     4.5307     6.8742 H       
  51 H51            3.4005     5.8994     5.7410 H       
  52 H52            1.4766     3.7780     7.9753 H       
  53 H53           -0.0483     4.6212     7.6108 H       
  54 H54           -0.9305     2.3361     7.0326 H       
@<TRIPOS>BOND
   1    1    2 1
   2    1   34 1
   3    1   35 1
   4    1   36 1
   5    2   24 1
   6    2    3 1
   7    3    4 1
   8    3   37 1
   9    3   38 1
  10    4    5 2
  11    4   39 1
  12    5    6 1
  13    5   40 1
  14    6   24 ar
  15    6    7 ar
  16    7    8 1
  17    7   16 ar
  18    8    9 1
  19    8   41 1
  20    8   42 1
  21    9   15 ar
  22    9   10 ar
  23   10   11 ar
  24   10   43 1
  25   11   12 ar
  26   11   44 1
  27   12   13 1
  28   12   14 ar
  29   14   15 ar
  30   15   45 1
  31   16   17 ar
  32   16   46 1
  33   17   23 ar
  34   17   18 1
  35   18   19 2
  36   18   20 am
  37   20   21 1
  38   20   25 1
  39   21   22 2
  40   21   47 1
  41   22   23 1
  42   23   24 ar
  43   25   26 1
  44   25   31 1
  45   25   27 1
  46   27   28 1
  47   27   48 1
  48   27   49 1
  49   28   29 1
  50   28   50 1
  51   28   51 1
  52   29   30 1
  53   30   31 1
  54   30   52 1
  55   30   53 1
  56   31   32 1
  57   31   33 1
  58   33   54 1

#	End of record

