#	Name: ASD01815989
#	Creating user name:	WinNT
#	Creation time:	15. 06. 2019 19:34

#	Modifying user name:	WinNT
#	Modification time:	15. 06. 2019 19:34

#	Program:	/corina/corina34_cracker 3.40 0067  02.08.2006

@<TRIPOS>MOLECULE
ASD01815989
  49   54    0    0    0
SMALL
NO_CHARGES


@<TRIPOS>ATOM
   1 C1            -0.1476     1.2337     0.2070 C.ar    
   2 C2            -0.0739    -0.1497     0.1914 C.ar    
   3 C3             1.1467    -0.7879     0.1131 C.ar    
   4 C4             2.3191    -0.0432     0.0488 C.ar    
   5 C5             2.2408     1.3594     0.0647 C.ar    
   6 C6             1.0041     1.9911     0.1441 C.ar    
   7 N7             3.5470    -0.6773    -0.0295 N.pl3   
   8 C8             4.7111    -0.0113    -0.0936 C.2     
   9 C9             4.7594     1.3606    -0.0858 C.2     
  10 C10            3.4970     2.1302    -0.0044 C.2     
  11 C11            5.8155     2.3666    -0.1416 C.2     
  12 N12            5.1957     3.5657    -0.0959 N.am    
  13 N13            3.8116     3.3936    -0.0142 N.2     
  14 C14            5.8476     4.8051    -0.1258 C.ar    
  15 O15            7.0168     2.1649    -0.2142 O.2     
  16 C16            3.5779    -2.1419    -0.0427 C.3     
  17 C17            6.1927     5.3807    -1.3413 C.ar    
  18 C18            6.8355     6.6030    -1.3677 C.ar    
  19 C19            7.1366     7.2543    -0.1855 C.ar    
  20 C20            6.7951     6.6854     1.0276 C.ar    
  21 C21            6.1458     5.4647     1.0617 C.ar    
  22 F22            5.8117     4.9088     2.2468 F       
  23 C23            3.4314    -2.6348    -1.4593 C.ar    
  24 C24            3.4783    -4.0104    -1.7487 C.ar    
  25 C25            3.3347    -4.4172    -3.1011 C.ar    
  26 C26            3.1531    -3.4306    -4.0833 C.ar    
  27 N27            3.1195    -2.1642    -3.7399 N.ar    
  28 C28            3.2453    -1.7574    -2.4843 C.ar    
  29 C29            3.6613    -4.9787    -0.7509 C.ar    
  30 C30            3.6984    -6.2963    -1.0943 C.ar    
  31 C31            3.5578    -6.6969    -2.4219 C.ar    
  32 C32            3.3782    -5.7844    -3.4165 C.ar    
  33 H33           -1.1098     1.7209     0.2641 H       
  34 H34           -0.9806    -0.7342     0.2415 H       
  35 H35            1.1916    -1.8669     0.1020 H       
  36 H36            0.9456     3.0694     0.1559 H       
  37 H37            5.6338    -0.5695    -0.1523 H       
  38 H38            4.5267    -2.4890     0.3665 H       
  39 H39            2.7580    -2.5281     0.5630 H       
  40 H40            5.9589     4.8730    -2.2654 H       
  41 H41            7.1038     7.0506    -2.3133 H       
  42 H42            7.6399     8.2096    -0.2099 H       
  43 H43            7.0320     7.1966     1.9490 H       
  44 H44            3.0416    -3.7132    -5.1197 H       
  45 H45            3.2087    -0.6996    -2.2694 H       
  46 H46            3.7722    -4.6820     0.2816 H       
  47 H47            3.8393    -7.0422    -0.3260 H       
  48 H48            3.5915    -7.7485    -2.6657 H       
  49 H49            3.2705    -6.1101    -4.4405 H       
@<TRIPOS>BOND
   1    1    2 ar
   2    1    6 ar
   3    1   33 1
   4    2    3 ar
   5    2   34 1
   6    3    4 ar
   7    3   35 1
   8    4    5 ar
   9    4    7 1
  10    5    6 ar
  11    5   10 1
  12    6   36 1
  13    7    8 1
  14    7   16 1
  15    8    9 2
  16    8   37 1
  17    9   10 1
  18    9   11 1
  19   10   13 2
  20   11   12 am
  21   11   15 2
  22   12   13 1
  23   12   14 1
  24   14   17 ar
  25   14   21 ar
  26   16   23 1
  27   16   38 1
  28   16   39 1
  29   17   18 ar
  30   17   40 1
  31   18   19 ar
  32   18   41 1
  33   19   20 ar
  34   19   42 1
  35   20   21 ar
  36   20   43 1
  37   21   22 1
  38   23   24 ar
  39   23   28 ar
  40   24   25 ar
  41   24   29 ar
  42   25   26 ar
  43   25   32 ar
  44   26   27 ar
  45   26   44 1
  46   27   28 ar
  47   28   45 1
  48   29   30 ar
  49   29   46 1
  50   30   31 ar
  51   30   47 1
  52   31   32 ar
  53   31   48 1
  54   32   49 1

#	End of record

