#	Name: ASD01418037
#	Creating user name:	WinNT
#	Creation time:	15. 06. 2019 19:20

#	Modifying user name:	WinNT
#	Modification time:	15. 06. 2019 19:20

#	Program:	/corina/corina34_cracker 3.40 0067  02.08.2006

@<TRIPOS>MOLECULE
ASD01418037
  71   75    0    0    0
SMALL
NO_CHARGES


@<TRIPOS>ATOM
   1 C1             0.1178     1.1668    -0.1337 C.3     
   2 N2             0.2302    -0.2696     0.1481 N.pl3   
   3 C3             0.7486    -0.8082     1.3031 C.2     
   4 C4             1.2177    -0.0344     2.4691 C.ar    
   5 C5             1.8686     1.2029     2.3288 C.ar    
   6 C6             2.2298     1.7698     1.0371 C.2     
   7 C7             1.4946     1.7717    -0.0774 C.2     
   8 C8             0.9919    -0.5588     3.7456 C.ar    
   9 C9             1.3692     0.1485     4.8660 C.ar    
  10 C10            1.9726     1.3920     4.7352 C.ar    
  11 C11            2.2209     1.9184     3.4862 C.ar    
  12 C12           -0.1400    -1.2915    -0.6836 C.ar    
  13 C13            0.1836    -2.5099    -0.0280 C.ar    
  14 C14            0.7426    -2.1699     1.2121 C.2     
  15 C15           -0.7221    -1.2926    -1.9436 C.ar    
  16 C16           -0.9671    -2.5430    -2.5256 C.ar    
  17 C17           -0.6420    -3.7379    -1.8730 C.ar    
  18 C18           -0.0693    -3.7533    -0.6308 C.ar    
  19 C19            1.2458    -3.1337     2.2557 C.3     
  20 C20            0.1004    -4.0434     2.7043 C.3     
  21 C21            2.3711    -3.9847     1.6637 C.3     
  22 C22            2.8820    -4.9631     2.7232 C.3     
  23 C23            1.7365    -5.8729     3.1718 C.3     
  24 C24            0.6113    -5.0219     3.7638 C.3     
  25 F25            2.3180     2.0903     5.8390 F       
  26 C26           -1.5851    -2.6021    -3.8628 C.2     
  27 O27           -1.8744    -1.5752    -4.4444 O.2     
  28 O28           -1.8291    -3.7951    -4.4402 O.3     
  29 C29            2.0461     2.3827    -1.2848 C.2     
  30 O30            1.7126     3.5082    -1.6037 O.2     
  31 O31            2.9254     1.6984    -2.0459 O.3     
  32 C32            3.4240     2.3569    -3.2120 C.3     
  33 C33            3.5829     2.4274     0.9486 C.3     
  34 C34           -2.4394    -3.7774    -5.7576 C.3     
  35 C35           -1.5282    -3.0279    -6.7317 C.3     
  36 C36           -2.6380    -5.2133    -6.2471 C.3     
  37 C37           -3.7951    -3.0722    -5.6821 C.3     
  38 H38           -0.3073     1.3138    -1.1265 H       
  39 H39           -0.5210     1.6384     0.6131 H       
  40 H40            0.5187    -1.5235     3.8537 H       
  41 H41            1.1949    -0.2651     5.8484 H       
  42 H42            2.6892     2.8874     3.3960 H       
  43 H43           -0.9744    -0.3732    -2.4510 H       
  44 H44           -0.8502    -4.6765    -2.3651 H       
  45 H45            0.1777    -4.6806    -0.1353 H       
  46 H46            1.6242    -2.5764     3.1127 H       
  47 H47           -0.7012    -3.4371     3.1261 H       
  48 H48           -0.2779    -4.6007     1.8474 H       
  49 H49            1.9928    -4.5420     0.8067 H       
  50 H50            3.1871    -3.3366     1.3441 H       
  51 H51            3.6836    -5.5694     2.3014 H       
  52 H52            3.2603    -4.4058     3.5801 H       
  53 H53            1.3582    -6.4302     2.3149 H       
  54 H54            2.1005    -6.5699     3.9266 H       
  55 H55            0.9896    -4.4645     4.6208 H       
  56 H56           -0.2047    -5.6700     4.0835 H       
  57 H57            2.5934     2.6029    -3.8735 H       
  58 H58            3.9394     3.2720    -2.9201 H       
  59 H59            4.1196     1.6981    -3.7318 H       
  60 H60            4.3092     1.7133     0.5605 H       
  61 H61            3.5261     3.2871     0.2810 H       
  62 H62            3.8921     2.7574     1.9404 H       
  63 H63           -0.5624    -3.5302    -6.7855 H       
  64 H64           -1.9864    -3.0146    -7.7207 H       
  65 H65           -1.3868    -2.0049    -6.3830 H       
  66 H66           -3.2871    -5.7473    -5.5531 H       
  67 H67           -3.0961    -5.2000    -7.2360 H       
  68 H68           -1.6721    -5.7157    -6.3008 H       
  69 H69           -3.6537    -2.0493    -5.3334 H       
  70 H70           -4.2533    -3.0589    -6.6710 H       
  71 H71           -4.4442    -3.6062    -4.9881 H       
@<TRIPOS>BOND
   1    1    2 1
   2    1    7 1
   3    1   38 1
   4    1   39 1
   5    2    3 1
   6    2   12 1
   7    3    4 1
   8    3   14 2
   9    4    5 ar
  10    4    8 ar
  11    5    6 1
  12    5   11 ar
  13    6    7 2
  14    6   33 1
  15    7   29 1
  16    8    9 ar
  17    8   40 1
  18    9   10 ar
  19    9   41 1
  20   10   11 ar
  21   10   25 1
  22   11   42 1
  23   12   13 ar
  24   12   15 ar
  25   13   14 1
  26   13   18 ar
  27   14   19 1
  28   15   16 ar
  29   15   43 1
  30   16   17 ar
  31   16   26 1
  32   17   18 ar
  33   17   44 1
  34   18   45 1
  35   19   20 1
  36   19   21 1
  37   19   46 1
  38   20   24 1
  39   20   47 1
  40   20   48 1
  41   21   22 1
  42   21   49 1
  43   21   50 1
  44   22   23 1
  45   22   51 1
  46   22   52 1
  47   23   24 1
  48   23   53 1
  49   23   54 1
  50   24   55 1
  51   24   56 1
  52   26   27 2
  53   26   28 1
  54   28   34 1
  55   29   30 2
  56   29   31 1
  57   31   32 1
  58   32   57 1
  59   32   58 1
  60   32   59 1
  61   33   60 1
  62   33   61 1
  63   33   62 1
  64   34   35 1
  65   34   36 1
  66   34   37 1
  67   35   63 1
  68   35   64 1
  69   35   65 1
  70   36   66 1
  71   36   67 1
  72   36   68 1
  73   37   69 1
  74   37   70 1
  75   37   71 1

#	End of record

