#	Name: ASD08830011
#	Creating user name:	WinNT
#	Creation time:	15. 06. 2019 21:19

#	Modifying user name:	WinNT
#	Modification time:	15. 06. 2019 21:19

#	Program:	/corina/corina34_cracker 3.40 0067  02.08.2006

@<TRIPOS>MOLECULE
ASD08830011
  38   40    0    0    0
SMALL
NO_CHARGES


@<TRIPOS>ATOM
   1 C1            -0.0172     1.4155     0.0098 C.ar    
   2 C2             0.0021    -0.0041     0.0020 C.ar    
   3 C3             1.2068     2.1121     0.0019 C.ar    
   4 N4             2.3384     1.4566    -0.0129 N.ar    
   5 C5             2.3984     0.1202    -0.0207 C.ar    
   6 C6             1.2479    -0.6544    -0.0134 C.ar    
   7 C7             3.7133    -0.5422    -0.0374 C.2     
   8 C8             4.9734     0.2843    -0.0455 C.3     
   9 C9             6.1909    -0.6421    -0.0626 C.3     
  10 N10            7.4192     0.1636    -0.0705 N.3     
  11 C11            8.6033    -0.6789     0.1516 C.3     
  12 O12            3.7822    -1.7528    -0.0446 O.2     
  13 C13           -1.2084    -0.7131     0.0093 C.ar    
  14 C14           -2.3867    -0.0284     0.0238 C.ar    
  15 C15           -2.4062     1.3644     0.0310 C.ar    
  16 C16           -1.2489     2.0847     0.0194 C.ar    
  17 C17            9.8621     0.1893     0.0763 C.3     
  18 O18            9.7632     1.2474     1.0334 O.3     
  19 C19            8.6215     2.0881     0.8464 C.3     
  20 C20            7.3502     1.2391     0.9294 C.3     
  21 H21            1.2110     3.1920     0.0077 H       
  22 H22            1.3080    -1.7327    -0.0198 H       
  23 H23            4.9865     0.9180    -0.9322 H       
  24 H24            5.0042     0.9084     0.8476 H       
  25 H25            6.1777    -1.2758     0.8242 H       
  26 H26            6.1600    -1.2662    -0.9557 H       
  27 H27            8.5401    -1.1437     1.1355 H       
  28 H28            8.6485    -1.4526    -0.6149 H       
  29 H29           -1.2065    -1.7931     0.0032 H       
  30 H30           -3.3189    -0.5736     0.0295 H       
  31 H31           -3.3539     1.8822     0.0418 H       
  32 H32           -1.2807     3.1642     0.0251 H       
  33 H33           10.7384    -0.4203     0.2968 H       
  34 H34            9.9539     0.6112    -0.9245 H       
  35 H35            8.6006     2.8518     1.6238 H       
  36 H36            8.6773     2.5652    -0.1321 H       
  37 H37            6.4806     1.8655     0.7308 H       
  38 H38            7.2669     0.8050     1.9258 H       
@<TRIPOS>BOND
   1    1    2 ar
   2    1    3 ar
   3    1   16 ar
   4    2   13 ar
   5    2    6 ar
   6    3    4 ar
   7    3   21 1
   8    4    5 ar
   9    5    6 ar
  10    5    7 1
  11    6   22 1
  12    7    8 1
  13    7   12 2
  14    8    9 1
  15    8   23 1
  16    8   24 1
  17    9   10 1
  18    9   25 1
  19    9   26 1
  20   10   11 1
  21   10   20 1
  22   11   17 1
  23   11   27 1
  24   11   28 1
  25   13   14 ar
  26   13   29 1
  27   14   15 ar
  28   14   30 1
  29   15   16 ar
  30   15   31 1
  31   16   32 1
  32   17   18 1
  33   17   33 1
  34   17   34 1
  35   18   19 1
  36   19   20 1
  37   19   35 1
  38   19   36 1
  39   20   37 1
  40   20   38 1

#	End of record

