#	Name: ASD01890003
#	Creating user name:	WinNT
#	Creation time:	15. 06. 2019 19:50

#	Modifying user name:	WinNT
#	Modification time:	15. 06. 2019 19:50

#	Program:	/corina/corina34_cracker 3.40 0067  02.08.2006

@<TRIPOS>MOLECULE
ASD01890003
  44   48    0    0    0
SMALL
NO_CHARGES


@<TRIPOS>ATOM
   1 C1            -0.0166     1.3722     0.0096 C.ar    
   2 C2             0.0021    -0.0041     0.0020 C.ar    
   3 C3             1.2224    -0.6829    -0.0139 C.ar    
   4 C4             2.4227     0.0498    -0.0209 C.ar    
   5 C5             2.3840     1.4363    -0.0127 C.ar    
   6 C6             1.1702     2.0915     0.0021 C.ar    
   7 N7             1.5557    -2.0031    -0.0269 N.2     
   8 C8             2.8420    -2.1306    -0.0442 C.2     
   9 N9             3.4337    -0.8873    -0.0352 N.am    
  10 C10            3.6497    -3.4090    -0.0775 C.3     
  11 C11            5.0040    -3.0890    -0.7247 C.3     
  12 C12            5.6657    -1.9202     0.0070 C.3     
  13 C13            4.7688    -0.7057    -0.0350 C.2     
  14 O14            5.2393     0.4067    -0.0682 O.2     
  15 C15            5.8965    -4.3005    -0.6435 C.ar    
  16 C16            6.3796    -4.8795    -1.8031 C.ar    
  17 C17            7.1974    -5.9892    -1.7346 C.ar    
  18 C18            7.5362    -6.5262    -0.4943 C.ar    
  19 C19            7.0467    -5.9390     0.6706 C.ar    
  20 C20            6.2342    -4.8261     0.5906 C.ar    
  21 C21            8.4147    -7.7194    -0.4144 C.ar    
  22 C22            8.7535    -8.2565     0.8259 C.ar    
  23 C23            9.5710    -9.3664     0.8944 C.ar    
  24 C24           10.0541    -9.9453    -0.2652 C.ar    
  25 C25            9.7213    -9.4161    -1.4991 C.ar    
  26 C26            8.8992    -8.3104    -1.5795 C.ar    
  27 I27            1.1179     4.1858     0.0133 I       
  28 H28           -0.9611     1.8958     0.0169 H       
  29 H29           -0.9251    -0.5579     0.0087 H       
  30 H30            3.3036     2.0026    -0.0181 H       
  31 H31            3.8027    -3.7759     0.9374 H       
  32 H32            3.1265    -4.1611    -0.6681 H       
  33 H33            4.8517    -2.8221    -1.7705 H       
  34 H34            5.8470    -2.1997     1.0448 H       
  35 H35            6.6156    -1.6847    -0.4729 H       
  36 H36            6.1161    -4.4626    -2.7639 H       
  37 H37            7.5738    -6.4406    -2.6407 H       
  38 H38            7.3062    -6.3512     1.6345 H       
  39 H39            5.8543    -4.3702     1.4929 H       
  40 H40            8.3774    -7.8048     1.7320 H       
  41 H41            9.8342    -9.7835     1.8552 H       
  42 H42           10.6938   -10.8135    -0.2070 H       
  43 H43           10.1016    -9.8718    -2.4014 H       
  44 H44            8.6397    -7.8981    -2.5434 H       
@<TRIPOS>BOND
   1    1    2 ar
   2    1    6 ar
   3    1   28 1
   4    2    3 ar
   5    2   29 1
   6    3    4 ar
   7    3    7 1
   8    4    5 ar
   9    4    9 1
  10    5    6 ar
  11    5   30 1
  12    6   27 1
  13    7    8 2
  14    8    9 1
  15    8   10 1
  16    9   13 am
  17   10   11 1
  18   10   31 1
  19   10   32 1
  20   11   12 1
  21   11   15 1
  22   11   33 1
  23   12   13 1
  24   12   34 1
  25   12   35 1
  26   13   14 2
  27   15   16 ar
  28   15   20 ar
  29   16   17 ar
  30   16   36 1
  31   17   18 ar
  32   17   37 1
  33   18   19 ar
  34   18   21 1
  35   19   20 ar
  36   19   38 1
  37   20   39 1
  38   21   22 ar
  39   21   26 ar
  40   22   23 ar
  41   22   40 1
  42   23   24 ar
  43   23   41 1
  44   24   25 ar
  45   24   42 1
  46   25   26 ar
  47   25   43 1
  48   26   44 1

#	End of record

