#	Name: ASD01820080
#	Creating user name:	WinNT
#	Creation time:	15. 06. 2019 19:36

#	Modifying user name:	WinNT
#	Modification time:	15. 06. 2019 19:36

#	Program:	/corina/corina34_cracker 3.40 0067  02.08.2006

@<TRIPOS>MOLECULE
ASD01820080
  78   82    0    0    0
SMALL
NO_CHARGES


@<TRIPOS>ATOM
   1 C1            -0.0166     1.3765     0.0096 C.ar    
   2 C2             0.0021    -0.0041     0.0020 C.ar    
   3 C3             1.2059    -0.6838    -0.0135 C.ar    
   4 C4             2.3956     0.0197    -0.0069 C.ar    
   5 C5             2.3845     1.4067     0.0159 C.ar    
   6 C6             1.1748     2.0954     0.0021 C.ar    
   7 N7             3.6001     2.1025     0.0986 N.am    
   8 C8             3.8404     2.9139     1.2055 C.ar    
   9 C9             3.0004     3.9974     1.4851 C.ar    
  10 C10            1.9012     4.3454     0.5751 C.2     
  11 N11            1.1237     3.4843    -0.0609 N.am    
  12 C12            4.9158     2.6411     2.0407 C.ar    
  13 C13            5.1376     3.4196     3.1593 C.ar    
  14 C14            4.2899     4.4738     3.4571 C.ar    
  15 C15            3.2265     4.7665     2.6306 C.ar    
  16 O16            1.6867     5.5278     0.3909 O.2     
  17 C17            4.5218     1.9873    -0.8780 C.2     
  18 O18            4.3034     1.2781    -1.8374 O.2     
  19 C19            5.8237     2.7397    -0.7779 C.3     
  20 N20            6.6496     2.4482    -1.9572 N.3     
  21 C21            7.8164     3.3380    -2.0155 C.3     
  22 C22            8.5715     3.1060    -3.3262 C.3     
  23 C23            9.0176     1.6432    -3.4005 C.3     
  24 C24            7.7886     0.7367    -3.2890 C.3     
  25 C25            7.0562     1.0374    -1.9794 C.3     
  26 C26            9.7202     1.3901    -4.7359 C.3     
  27 C27           10.2748    -0.0357    -4.7582 C.3     
  28 C28           10.9773    -0.2888    -6.0936 C.3     
  29 C29           11.5319    -1.7146    -6.1159 C.3     
  30 C30           12.2345    -1.9677    -7.4513 C.3     
  31 N31           12.7669    -3.3366    -7.4727 N.3     
  32 C32           13.2378    -3.6976    -8.8172 C.3     
  33 C33           13.8559    -5.0972    -8.7797 C.3     
  34 N34           12.8543    -6.0595    -8.2996 N.3     
  35 C35           12.3834    -5.6985    -6.9552 C.3     
  36 C36           11.7653    -4.2989    -6.9927 C.3     
  37 C37           13.3867    -7.4284    -8.3211 C.3     
  38 H38           -0.9607     1.9010     0.0169 H       
  39 H39           -0.9269    -0.5549     0.0086 H       
  40 H40            1.2167    -1.7636    -0.0305 H       
  41 H41            3.3358    -0.5116    -0.0190 H       
  42 H42            0.4415     3.8641    -0.6366 H       
  43 H43            5.5791     1.8192     1.8152 H       
  44 H44            5.9760     3.2052     3.8055 H       
  45 H45            4.4629     5.0692     4.3414 H       
  46 H46            2.5681     5.5891     2.8679 H       
  47 H47            5.6222     3.8098    -0.7308 H       
  48 H48            6.3540     2.4299     0.1226 H       
  49 H49            7.4849     4.3752    -1.9660 H       
  50 H50            8.4762     3.1272    -1.1739 H       
  51 H51            7.9165     3.3299    -4.1681 H       
  52 H52            9.4462     3.7555    -3.3621 H       
  53 H53            9.7035     1.4294    -2.5808 H       
  54 H54            7.1213     0.9233    -4.1304 H       
  55 H55            8.1040    -0.3067    -3.2983 H       
  56 H56            7.7196     0.8373    -1.1380 H       
  57 H57            6.1726     0.4036    -1.9036 H       
  58 H58            9.0074     1.5155    -5.5509 H       
  59 H59           10.5384     2.1001    -4.8563 H       
  60 H60           10.9876    -0.1611    -3.9432 H       
  61 H61            9.4566    -0.7458    -4.6378 H       
  62 H62           10.2645    -0.1634    -6.9086 H       
  63 H63           11.7955     0.4212    -6.2140 H       
  64 H64           12.2447    -1.8400    -5.3009 H       
  65 H65           10.7137    -2.4246    -5.9955 H       
  66 H66           11.5217    -1.8423    -8.2664 H       
  67 H67           13.0527    -1.2577    -7.5717 H       
  68 H68           12.3973    -3.6897    -9.5112 H       
  69 H69           13.9876    -2.9776    -9.1454 H       
  70 H70           14.1797    -5.3788    -9.7817 H       
  71 H71           14.7131    -5.0983    -8.1064 H       
  72 H72           11.6337    -6.4185    -6.6270 H       
  73 H73           13.2239    -5.7064    -6.2612 H       
  74 H74           11.4415    -4.0174    -5.9907 H       
  75 H75           10.9081    -4.2978    -7.6659 H       
  76 H76           14.2644    -7.4870    -7.6773 H       
  77 H77           12.6252    -8.1202    -7.9610 H       
  78 H78           13.6658    -7.6938    -9.3408 H       
@<TRIPOS>BOND
   1    1    2 ar
   2    1    6 ar
   3    1   38 1
   4    2    3 ar
   5    2   39 1
   6    3    4 ar
   7    3   40 1
   8    4    5 ar
   9    4   41 1
  10    5    6 ar
  11    5    7 1
  12    6   11 1
  13    7    8 1
  14    7   17 am
  15    8    9 ar
  16    8   12 ar
  17    9   10 1
  18    9   15 ar
  19   10   11 am
  20   10   16 2
  21   11   42 1
  22   12   13 ar
  23   12   43 1
  24   13   14 ar
  25   13   44 1
  26   14   15 ar
  27   14   45 1
  28   15   46 1
  29   17   18 2
  30   17   19 1
  31   19   20 1
  32   19   47 1
  33   19   48 1
  34   20   21 1
  35   20   25 1
  36   21   22 1
  37   21   49 1
  38   21   50 1
  39   22   23 1
  40   22   51 1
  41   22   52 1
  42   23   24 1
  43   23   26 1
  44   23   53 1
  45   24   25 1
  46   24   54 1
  47   24   55 1
  48   25   56 1
  49   25   57 1
  50   26   27 1
  51   26   58 1
  52   26   59 1
  53   27   28 1
  54   27   60 1
  55   27   61 1
  56   28   29 1
  57   28   62 1
  58   28   63 1
  59   29   30 1
  60   29   64 1
  61   29   65 1
  62   30   31 1
  63   30   66 1
  64   30   67 1
  65   31   32 1
  66   31   36 1
  67   32   33 1
  68   32   68 1
  69   32   69 1
  70   33   34 1
  71   33   70 1
  72   33   71 1
  73   34   35 1
  74   34   37 1
  75   35   36 1
  76   35   72 1
  77   35   73 1
  78   36   74 1
  79   36   75 1
  80   37   76 1
  81   37   77 1
  82   37   78 1

#	End of record

