#	Name: ASD04590535
#	Creating user name:	WinNT
#	Creation time:	15. 06. 2019 20:51

#	Modifying user name:	WinNT
#	Modification time:	15. 06. 2019 20:51

#	Program:	/corina/corina34_cracker 3.40 0067  02.08.2006

@<TRIPOS>MOLECULE
ASD04590535
  65   70    0    0    0
SMALL
NO_CHARGES


@<TRIPOS>ATOM
   1 C1            -0.0768     1.2530    -0.8899 C.ar    
   2 C2            -0.0308    -0.0755    -0.4918 C.ar    
   3 C3             2.3441    -0.0910    -0.7846 C.ar    
   4 C4             2.2974     1.2551    -1.1880 C.ar    
   5 C5             1.0797     1.9191    -1.2373 C.ar    
   6 N6             3.6425    -0.4780    -0.8303 N.2     
   7 C7             4.3873     0.5247    -1.2289 C.2     
   8 N8             3.6012     1.6209    -1.4632 N.pl3   
   9 C9             5.8542     0.4788    -1.3991 C.2     
  10 C10            6.6839    -0.6417    -1.1629 C.2     
  11 C11            7.9604    -0.2754    -1.4344 C.2     
  12 N12            7.9458     1.0254    -1.8277 N.pl3   
  13 N13            6.6192     1.4738    -1.8034 N.2     
  14 N14            6.2611    -1.9072    -0.7250 N.am    
  15 C15            7.1624    -2.8918    -0.5391 C.2     
  16 O16            8.3419    -2.6843    -0.7506 O.2     
  17 C17            1.1582    -0.7458    -0.4369 C.ar    
  18 C18            6.7183    -4.2211    -0.0791 C.ar    
  19 C19            5.3641    -4.4736     0.1681 C.ar    
  20 C20           -1.3055    -0.7859    -0.1156 C.3     
  21 N21           -1.8851    -1.4168    -1.3090 N.3     
  22 C22           -2.9931    -2.3122    -0.9461 C.3     
  23 C23           -0.8589    -2.1410    -2.0730 C.3     
  24 C24           -1.4921    -2.7310    -3.3358 C.3     
  25 O25           -2.5866    -3.5737    -2.9652 O.3     
  26 C26           -3.6050    -2.9005    -2.2202 C.3     
  27 C27            4.9991    -5.7374     0.5977 C.ar    
  28 C28            5.9724    -6.7052     0.7690 C.ar    
  29 N29            7.2434    -6.4457     0.5302 N.ar    
  30 C30            7.6453    -5.2571     0.1130 C.ar    
  31 O31            8.9608    -5.0349    -0.1198 O.3     
  32 C32            9.8127    -6.0894    -0.0242 C.ar    
  33 C33            9.8608    -7.0378    -1.0357 C.ar    
  34 C34           10.7276    -8.1088    -0.9360 C.ar    
  35 C35           11.5468    -8.2361     0.1705 C.ar    
  36 C36           11.5008    -7.2923     1.1800 C.ar    
  37 C37           10.6399    -6.2163     1.0825 C.ar    
  38 C38           12.4911    -9.4058     0.2769 C.3     
  39 H39           -1.0254     1.7675    -0.9323 H       
  40 H40            1.0380     2.9530    -1.5467 H       
  41 H41            3.9030     2.4915    -1.7664 H       
  42 H42            8.8338    -0.9052    -1.3523 H       
  43 H43            8.7196     1.5511    -2.0840 H       
  44 H44            5.3203    -2.0727    -0.5563 H       
  45 H45            1.1824    -1.7796    -0.1253 H       
  46 H46            4.6224    -3.7013     0.0274 H       
  47 H47           -1.0888    -1.5504     0.6305 H       
  48 H48           -2.0142    -0.0672     0.2959 H       
  49 H49           -2.6179    -3.1189    -0.3164 H       
  50 H50           -3.7530    -1.7496    -0.4036 H       
  51 H51           -0.0608    -1.4535    -2.3531 H       
  52 H52           -0.4495    -2.9450    -1.4614 H       
  53 H53           -1.8538    -1.9239    -3.9729 H       
  54 H54           -0.7486    -3.3168    -3.8763 H       
  55 H55           -4.3895    -3.6088    -1.9538 H       
  56 H56           -4.0280    -2.0982    -2.8248 H       
  57 H57            3.9628    -5.9661     0.7980 H       
  58 H58            5.6866    -7.6911     1.1047 H       
  59 H59            9.2209    -6.9391    -1.9001 H       
  60 H60           10.7651    -8.8476    -1.7230 H       
  61 H61           12.1415    -7.3941     2.0434 H       
  62 H62           10.6046    -5.4792     1.8710 H       
  63 H63           13.4477    -9.1426    -0.1745 H       
  64 H64           12.6415    -9.6570     1.3268 H       
  65 H65           12.0669   -10.2637    -0.2448 H       
@<TRIPOS>BOND
   1    1    2 ar
   2    1    5 ar
   3    1   39 1
   4    2   17 ar
   5    2   20 1
   6    3    4 ar
   7    3    6 1
   8    3   17 ar
   9    4    5 ar
  10    4    8 1
  11    5   40 1
  12    6    7 2
  13    7    8 1
  14    7    9 1
  15    8   41 1
  16    9   10 1
  17    9   13 2
  18   10   11 2
  19   10   14 1
  20   11   12 1
  21   11   42 1
  22   12   13 1
  23   12   43 1
  24   14   15 am
  25   14   44 1
  26   15   16 2
  27   15   18 1
  28   17   45 1
  29   18   19 ar
  30   18   30 ar
  31   19   27 ar
  32   19   46 1
  33   20   21 1
  34   20   47 1
  35   20   48 1
  36   21   22 1
  37   21   23 1
  38   22   26 1
  39   22   49 1
  40   22   50 1
  41   23   24 1
  42   23   51 1
  43   23   52 1
  44   24   25 1
  45   24   53 1
  46   24   54 1
  47   25   26 1
  48   26   55 1
  49   26   56 1
  50   27   28 ar
  51   27   57 1
  52   28   29 ar
  53   28   58 1
  54   29   30 ar
  55   30   31 1
  56   31   32 1
  57   32   33 ar
  58   32   37 ar
  59   33   34 ar
  60   33   59 1
  61   34   35 ar
  62   34   60 1
  63   35   36 ar
  64   35   38 1
  65   36   37 ar
  66   36   61 1
  67   37   62 1
  68   38   63 1
  69   38   64 1
  70   38   65 1

#	End of record

