#	Name: ASD00310092
#	Creating user name:	WinNT
#	Creation time:	15. 06. 2019 18:33

#	Modifying user name:	WinNT
#	Modification time:	15. 06. 2019 18:33

#	Program:	/corina/corina34_cracker 3.40 0067  02.08.2006

@<TRIPOS>MOLECULE
ASD00310092
  46   49    0    0    0
SMALL
NO_CHARGES


@<TRIPOS>ATOM
   1 N1             0.1732     0.7576    -0.8392 N.pl3   
   2 C2             0.2848    -0.5789    -0.6513 C.2     
   3 C3             1.5875    -0.9037    -0.4076 C.2     
   4 C4             2.3478     0.3600    -0.4508 C.ar    
   5 C5             3.6899     0.6838    -0.2837 C.ar    
   6 C6             4.0943     2.0083    -0.3900 C.ar    
   7 C7             3.1539     3.0076    -0.6635 C.ar    
   8 C8             1.8253     2.6894    -0.8292 C.ar    
   9 C9             1.4063     1.3656    -0.7253 C.ar    
  10 C10            2.1257    -2.2446    -0.1525 C.2     
  11 O11            3.3152    -2.3936     0.0516 O.2     
  12 O12            1.3014    -3.3117    -0.1444 O.3     
  13 C13            5.5238     2.3637    -0.2128 C.ar    
  14 C14            6.1683     3.1616    -1.1564 C.ar    
  15 C15            7.4979     3.4895    -0.9864 C.ar    
  16 C16            8.1912     3.0272     0.1179 C.ar    
  17 C17            7.5568     2.2347     1.0572 C.ar    
  18 C18            6.2254     1.9057     0.9004 C.ar    
  19 C19            8.1961     4.3522    -2.0059 C.3     
  20 C20            9.6432     3.3882     0.2978 C.3     
  21 C21            9.8984     4.9036     0.3575 C.3     
  22 C22           10.9201     4.6083     1.4682 C.3     
  23 C23           10.1157     3.3306     1.7601 C.3     
  24 O24           10.5033     2.6983    -0.6111 O.3     
  25 Cl25           3.6668     4.6609    -0.7942 Cl      
  26 C26            1.9031    -4.6075     0.1149 C.3     
  27 H27           -0.6567     1.2217    -1.0310 H       
  28 H28           -0.5341    -1.2820    -0.6888 H       
  29 H29            4.4132    -0.0899    -0.0723 H       
  30 H30            1.1066     3.4676    -1.0401 H       
  31 H31            5.6281     3.5224    -2.0193 H       
  32 H32            8.1029     1.8763     1.9173 H       
  33 H33            5.7298     1.2905     1.6368 H       
  34 H34            8.1745     5.3915    -1.6782 H       
  35 H35            9.2307     4.0257    -2.1107 H       
  36 H36            7.6880     4.2634    -2.9661 H       
  37 H37           10.3455     5.3071    -0.5510 H       
  38 H38            9.0371     5.4783     0.6980 H       
  39 H39           11.9263     4.4153     1.0960 H       
  40 H40           10.9008     5.3321     2.2830 H       
  41 H41            9.3138     3.4753     2.4841 H       
  42 H42           10.7382     2.4643     1.9840 H       
  43 H43           10.3633     1.7418    -0.6358 H       
  44 H44            2.3789    -4.5976     1.0955 H       
  45 H45            1.1315    -5.3772     0.0932 H       
  46 H46            2.6504    -4.8206    -0.6495 H       
@<TRIPOS>BOND
   1    1    2 1
   2    1    9 1
   3    1   27 1
   4    2    3 2
   5    2   28 1
   6    3    4 1
   7    3   10 1
   8    4    5 ar
   9    4    9 ar
  10    5    6 ar
  11    5   29 1
  12    6    7 ar
  13    6   13 1
  14    7    8 ar
  15    7   25 1
  16    8    9 ar
  17    8   30 1
  18   10   11 2
  19   10   12 1
  20   12   26 1
  21   13   14 ar
  22   13   18 ar
  23   14   15 ar
  24   14   31 1
  25   15   16 ar
  26   15   19 1
  27   16   17 ar
  28   16   20 1
  29   17   18 ar
  30   17   32 1
  31   18   33 1
  32   19   34 1
  33   19   35 1
  34   19   36 1
  35   20   21 1
  36   20   23 1
  37   20   24 1
  38   21   22 1
  39   21   37 1
  40   21   38 1
  41   22   23 1
  42   22   39 1
  43   22   40 1
  44   23   41 1
  45   23   42 1
  46   24   43 1
  47   26   44 1
  48   26   45 1
  49   26   46 1

#	End of record

