#	Name: ASD04230155
#	Creating user name:	WinNT
#	Creation time:	15. 06. 2019 20:48

#	Modifying user name:	WinNT
#	Modification time:	15. 06. 2019 20:48

#	Program:	/corina/corina34_cracker 3.40 0067  02.08.2006

@<TRIPOS>MOLECULE
ASD04230155
  45   48    0    0    0
SMALL
NO_CHARGES


@<TRIPOS>ATOM
   1 C1            -0.0201     1.3790     0.0494 C.ar    
   2 C2            -0.0003    -0.0082     0.0381 C.ar    
   3 C3             1.1849    -0.6863     0.0294 C.ar    
   4 C4             2.3957     0.0212     0.0422 C.ar    
   5 C5             2.3815     1.4276     0.0205 C.ar    
   6 C6             1.1610     2.0997     0.0379 C.ar    
   7 C7             3.6343    -0.6710     0.0720 C.2     
   8 C8             4.7887     0.0708     0.2852 C.2     
   9 C9             4.6293     1.5213     0.4957 C.2     
  10 O10            3.5429     2.1221    -0.0390 O.3     
  11 C11            6.1167    -0.5649     0.3000 C.2     
  12 N12            7.2189     0.1819     0.5095 N.am    
  13 O13            6.2191    -1.7639     0.1231 O.2     
  14 C14            8.4678    -0.4348     0.6358 C.ar    
  15 C15            9.6060     0.1937     0.1459 C.ar    
  16 C16           10.8417    -0.4129     0.2690 C.ar    
  17 C17           10.9520    -1.6464     0.8792 C.ar    
  18 C18            9.8155    -2.2841     1.3731 C.ar    
  19 C19            8.5715    -1.6716     1.2553 C.ar    
  20 C20            9.9325    -3.6112     2.0288 C.2     
  21 O21            5.4495     2.1572     1.1309 O.2     
  22 C22            8.8753    -4.3679     2.5706 C.2     
  23 N23            9.3748    -5.4734     3.0563 N.2     
  24 N24           10.7590    -5.4664     2.8456 N.pl3   
  25 C25           11.0828    -4.3219     2.2108 C.2     
  26 C26           11.6934    -6.5228     3.2418 C.3     
  27 O27            1.1309     3.4591     0.0425 O.3     
  28 C28           -0.1564     4.0793     0.0605 C.3     
  29 H29           -0.9655     1.9009     0.0629 H       
  30 H30           -0.9306    -0.5567     0.0366 H       
  31 H31            1.1898    -1.7661     0.0129 H       
  32 H32            3.6777    -1.7412    -0.0665 H       
  33 H33            7.1460     1.1471     0.5728 H       
  34 H34            9.5249     1.1585    -0.3326 H       
  35 H35           11.7237     0.0792    -0.1137 H       
  36 H36           11.9192    -2.1174     0.9737 H       
  37 H37            7.6881    -2.1619     1.6369 H       
  38 H38            7.8335    -4.0838     2.5828 H       
  39 H39           12.0741    -4.0194     1.9071 H       
  40 H40           11.7896    -7.2455     2.4315 H       
  41 H41           12.6683    -6.0844     3.4552 H       
  42 H42           11.3177    -7.0246     4.1335 H       
  43 H43           -0.7178     3.7769    -0.8234 H       
  44 H44           -0.6956     3.7714     0.9564 H       
  45 H45           -0.0376     5.1628     0.0624 H       
@<TRIPOS>BOND
   1    1    2 ar
   2    1    6 ar
   3    1   29 1
   4    2    3 ar
   5    2   30 1
   6    3    4 ar
   7    3   31 1
   8    4    5 ar
   9    4    7 1
  10    5    6 ar
  11    5   10 1
  12    6   27 1
  13    7    8 2
  14    7   32 1
  15    8    9 1
  16    8   11 1
  17    9   10 1
  18    9   21 2
  19   11   12 am
  20   11   13 2
  21   12   14 1
  22   12   33 1
  23   14   15 ar
  24   14   19 ar
  25   15   16 ar
  26   15   34 1
  27   16   17 ar
  28   16   35 1
  29   17   18 ar
  30   17   36 1
  31   18   19 ar
  32   18   20 1
  33   19   37 1
  34   20   22 1
  35   20   25 2
  36   22   23 2
  37   22   38 1
  38   23   24 1
  39   24   25 1
  40   24   26 1
  41   25   39 1
  42   26   40 1
  43   26   41 1
  44   26   42 1
  45   27   28 1
  46   28   43 1
  47   28   44 1
  48   28   45 1

#	End of record

