#	Name: ASD03331583
#	Creating user name:	WinNT
#	Creation time:	15. 06. 2019 20:39

#	Modifying user name:	WinNT
#	Modification time:	15. 06. 2019 20:39

#	Program:	/corina/corina34_cracker 3.40 0067  02.08.2006

@<TRIPOS>MOLECULE
ASD03331583
  48   53    0    0    0
SMALL
NO_CHARGES


@<TRIPOS>ATOM
   1 C1             0.1072     1.4871     0.1128 C.3     
   2 C2             0.0825    -0.0610     0.0861 C.3     
   3 C3             1.4479    -0.4576     0.7037 C.3     
   4 C4             2.6378    -0.3315    -0.2814 C.3     
   5 C5             2.2295     0.1666    -1.6915 C.3     
   6 C6             2.0576     1.6938    -1.5021 C.3     
   7 C7             1.6049     1.8170    -0.0347 C.3     
   8 N8             2.3129     0.7304     0.6813 N.3     
   9 C9             3.3676     2.4073    -1.7165 C.2     
  10 C10            3.3179    -0.1245    -2.6924 C.ar    
  11 C11            3.6740     3.2443    -2.7334 C.2     
  12 C12            5.0150     3.6357    -2.4628 C.2     
  13 N13            5.3583     3.0192    -1.3592 N.2     
  14 O14            4.4533     2.3400    -0.9329 O.3     
  15 C15            5.8552     4.5566    -3.2683 C.ar    
  16 C16            7.1591     4.8428    -2.8689 C.ar    
  17 C17            7.9363     5.6997    -3.6211 C.ar    
  18 C18            7.4224     6.2750    -4.7707 C.ar    
  19 C19            6.1273     5.9941    -5.1714 C.ar    
  20 C20            5.3446     5.1333    -4.4294 C.ar    
  21 Cl21           8.4049     7.3527    -5.7125 Cl      
  22 C22            4.6425    -0.1075    -2.2975 C.ar    
  23 C23            5.6409    -0.3745    -3.2156 C.ar    
  24 C24            5.3146    -0.6587    -4.5284 C.ar    
  25 C25            3.9899    -0.6766    -4.9231 C.ar    
  26 C26            2.9913    -0.4139    -4.0040 C.ar    
  27 C27            6.4030    -0.9488    -5.5296 C.3     
  28 H28           -0.4610     1.8955    -0.7230 H       
  29 H29           -0.2779     1.8618     1.0611 H       
  30 H30           -0.7384    -0.4420     0.6936 H       
  31 H31            0.0044    -0.4257    -0.9381 H       
  32 H32            1.4599    -1.2042     1.4978 H       
  33 H33            3.5039    -0.9876    -0.1945 H       
  34 H34            1.2895    -0.2896    -2.0020 H       
  35 H35            1.2925     2.0813    -2.1748 H       
  36 H36            1.8388     2.8001     0.3737 H       
  37 H37            3.0469     3.5453    -3.5596 H       
  38 H38            7.5606     4.3950    -1.9719 H       
  39 H39            8.9471     5.9221    -3.3124 H       
  40 H40            5.7305     6.4459    -6.0685 H       
  41 H41            4.3344     4.9148    -4.7427 H       
  42 H42            4.8975     0.1146    -1.2718 H       
  43 H43            6.6759    -0.3605    -2.9073 H       
  44 H44            3.7350    -0.8983    -5.9489 H       
  45 H45            1.9563    -0.4278    -4.3123 H       
  46 H46            6.6107    -2.0187    -5.5408 H       
  47 H47            6.0791    -0.6311    -6.5207 H       
  48 H48            7.3065    -0.4062    -5.2513 H       
@<TRIPOS>BOND
   1    1    2 1
   2    1    7 1
   3    1   28 1
   4    1   29 1
   5    2    3 1
   6    2   30 1
   7    2   31 1
   8    3    4 1
   9    3    8 1
  10    3   32 1
  11    4    5 1
  12    4    8 1
  13    4   33 1
  14    5    6 1
  15    5   10 1
  16    5   34 1
  17    6    7 1
  18    6    9 1
  19    6   35 1
  20    7    8 1
  21    7   36 1
  22    9   11 2
  23    9   14 1
  24   10   22 ar
  25   10   26 ar
  26   11   12 1
  27   11   37 1
  28   12   13 2
  29   12   15 1
  30   13   14 1
  31   15   16 ar
  32   15   20 ar
  33   16   17 ar
  34   16   38 1
  35   17   18 ar
  36   17   39 1
  37   18   19 ar
  38   18   21 1
  39   19   20 ar
  40   19   40 1
  41   20   41 1
  42   22   23 ar
  43   22   42 1
  44   23   24 ar
  45   23   43 1
  46   24   25 ar
  47   24   27 1
  48   25   26 ar
  49   25   44 1
  50   26   45 1
  51   27   46 1
  52   27   47 1
  53   27   48 1

#	End of record

