#	Name: ASD01810642
#	Creating user name:	WinNT
#	Creation time:	15. 06. 2019 19:25

#	Modifying user name:	WinNT
#	Modification time:	15. 06. 2019 19:25

#	Program:	/corina/corina34_cracker 3.40 0067  02.08.2006

@<TRIPOS>MOLECULE
ASD01810642
  35   35    0    0    0
SMALL
NO_CHARGES


@<TRIPOS>ATOM
   1 N1            -0.0164     1.3618     0.0095 N.am    
   2 N2             0.0021    -0.0041     0.0020 N.3     
   3 C3            -1.8509    -0.7312    -1.4272 C.3     
   4 C4            -1.3620    -0.5491     0.0121 C.3     
   5 C5            -1.3652    -1.9076     0.7199 C.3     
   6 C6            -2.7759    -2.5010     0.6557 C.3     
   7 C7            -3.2102    -2.6077    -0.8084 C.3     
   8 O8            -3.1550    -1.3153    -1.4156 O.3     
   9 C9             1.1414     2.0515     0.0022 C.2     
  10 O10            1.1250     3.2665     0.0089 O.2     
  11 O11            2.3164     1.3942    -0.0126 O.3     
  12 C12            3.5233     2.2016    -0.0198 C.3     
  13 C13            3.5581     3.0779     1.2339 C.3     
  14 C14            4.7491     1.2862    -0.0364 C.3     
  15 C15            3.5343     3.0913    -1.2644 C.3     
  16 H16           -0.8630     1.8353     0.0161 H       
  17 H17            0.5256    -0.3543    -0.7863 H       
  18 H18           -1.8914     0.2388    -1.9228 H       
  19 H19           -1.1643    -1.3856    -1.9642 H       
  20 H20           -2.0250     0.1381     0.5378 H       
  21 H21           -0.6643    -2.5789     0.2237 H       
  22 H22           -1.0717    -1.7768     1.7614 H       
  23 H23           -2.7749    -3.4925     1.1085 H       
  24 H24           -3.4681    -1.8541     1.1947 H       
  25 H25           -2.5413    -3.2867    -1.3374 H       
  26 H26           -4.2299    -2.9895    -0.8583 H       
  27 H27            3.5503     2.4440     2.1206 H       
  28 H28            4.4641     3.6839     1.2285 H       
  29 H29            2.6848     3.7300     1.2458 H       
  30 H30            4.7243     0.6618    -0.9295 H       
  31 H31            5.6551     1.8922    -0.0418 H       
  32 H32            4.7413     0.6523     0.8503 H       
  33 H33            2.6610     3.7434    -1.2526 H       
  34 H34            4.4402     3.6973    -1.2698 H       
  35 H35            3.5094     2.4670    -2.1576 H       
@<TRIPOS>BOND
   1    1    2 1
   2    1    9 am
   3    1   16 1
   4    2    4 1
   5    2   17 1
   6    3    4 1
   7    3    8 1
   8    3   18 1
   9    3   19 1
  10    4    5 1
  11    4   20 1
  12    5    6 1
  13    5   21 1
  14    5   22 1
  15    6    7 1
  16    6   23 1
  17    6   24 1
  18    7    8 1
  19    7   25 1
  20    7   26 1
  21    9   10 2
  22    9   11 1
  23   11   12 1
  24   12   13 1
  25   12   15 1
  26   12   14 1
  27   13   27 1
  28   13   28 1
  29   13   29 1
  30   14   30 1
  31   14   31 1
  32   14   32 1
  33   15   33 1
  34   15   34 1
  35   15   35 1

#	End of record

