#	Name: ASD04880349
#	Creating user name:	WinNT
#	Creation time:	15. 06. 2019 20:53

#	Modifying user name:	WinNT
#	Modification time:	15. 06. 2019 20:53

#	Program:	/corina/corina34_cracker 3.40 0067  02.08.2006

@<TRIPOS>MOLECULE
ASD04880349
  37   39    0    0    0
SMALL
NO_CHARGES


@<TRIPOS>ATOM
   1 C1            -0.0276     1.3765    -0.2802 C.ar    
   2 C2            -0.0052    -0.0197    -0.2621 C.ar    
   3 C3             1.2135    -0.6936    -0.2220 C.ar    
   4 C4             2.4037     0.0325    -0.2002 C.ar    
   5 C5             2.3662     1.4299    -0.2187 C.ar    
   6 C6             1.1547     2.0901    -0.2583 C.ar    
   7 N7            -2.4507    -0.1282    -0.3233 N.am    
   8 C8            -1.2725    -0.7814    -0.2850 C.2     
   9 C9             3.6988    -0.6719    -0.1573 C.2     
  10 N10            3.8489    -1.9512    -0.1374 N.2     
  11 N11            5.1779    -2.3680    -0.0971 N.am    
  12 C12            6.0485    -1.1816    -0.0889 C.3     
  13 C13            5.0551    -0.0038    -0.1364 C.3     
  14 C14            5.5974    -3.6485    -0.0694 C.2     
  15 O15            6.7848    -3.9009    -0.1389 O.2     
  16 C16            4.6142    -4.7459     0.0455 C.ar    
  17 C17            5.0295    -6.0740    -0.0691 C.ar    
  18 C18            3.2678    -4.4592     0.2748 C.ar    
  19 C19            2.3538    -5.4904     0.3811 C.ar    
  20 C20            2.7731    -6.8055     0.2609 C.ar    
  21 C21            4.1078    -7.0945     0.0388 C.ar    
  22 F22            1.0498    -5.2158     0.6030 F       
  23 O23           -1.2515    -1.9966    -0.2692 O.2     
  24 H24           -0.9718     1.8996    -0.3158 H       
  25 H25            1.2363    -1.7732    -0.2076 H       
  26 H26            3.2870     1.9940    -0.2015 H       
  27 H27            1.1312     3.1697    -0.2728 H       
  28 H28           -2.4674     0.8416    -0.3359 H       
  29 H29           -3.2820    -0.6278    -0.3383 H       
  30 H30            6.6443    -1.1494     0.8232 H       
  31 H31            6.6916    -1.1717    -0.9689 H       
  32 H32            5.2090     0.5901    -1.0373 H       
  33 H33            5.1554     0.6171     0.7538 H       
  34 H34            6.0709    -6.3020    -0.2425 H       
  35 H35            2.9409    -3.4342     0.3692 H       
  36 H36            2.0558    -7.6085     0.3450 H       
  37 H37            4.4281    -8.1217    -0.0543 H       
@<TRIPOS>BOND
   1    1    2 ar
   2    1    6 ar
   3    1   24 1
   4    2    3 ar
   5    2    8 1
   6    3    4 ar
   7    3   25 1
   8    4    5 ar
   9    4    9 1
  10    5    6 ar
  11    5   26 1
  12    6   27 1
  13    7    8 am
  14    7   28 1
  15    7   29 1
  16    8   23 2
  17    9   10 2
  18    9   13 1
  19   10   11 1
  20   11   12 1
  21   11   14 am
  22   12   13 1
  23   12   30 1
  24   12   31 1
  25   13   32 1
  26   13   33 1
  27   14   15 2
  28   14   16 1
  29   16   17 ar
  30   16   18 ar
  31   17   21 ar
  32   17   34 1
  33   18   19 ar
  34   18   35 1
  35   19   20 ar
  36   19   22 1
  37   20   21 ar
  38   20   36 1
  39   21   37 1

#	End of record

