#	Name: ASD08390062
#	Creating user name:	WinNT
#	Creation time:	15. 06. 2019 21:19

#	Modifying user name:	WinNT
#	Modification time:	15. 06. 2019 21:19

#	Program:	/corina/corina34_cracker 3.40 0067  02.08.2006

@<TRIPOS>MOLECULE
ASD08390062
  43   45    0    0    0
SMALL
NO_CHARGES


@<TRIPOS>ATOM
   1 C1            -0.1669     1.5253     0.0978 C.3     
   2 C2             0.0021    -0.0041     0.0020 C.3     
   3 N3             1.2184     2.0221     0.0501 N.pl3   
   4 C4             2.0592     0.9446    -0.0570 C.2     
   5 N5             1.4558    -0.1974    -0.0886 N.2     
   6 C6             3.5323     1.0781    -0.1296 C.ar    
   7 C7            -0.9595     2.0470    -1.0729 C.ar    
   8 C8             4.3337    -0.0581    -0.2379 C.ar    
   9 C9             5.7057     0.0727    -0.3051 C.ar    
  10 C10            6.2865     1.3276    -0.2650 C.ar    
  11 C11            5.4968     2.4584    -0.1572 C.ar    
  12 C12            4.1233     2.3408    -0.0959 C.ar    
  13 C13           -2.3043     2.3310    -0.9256 C.ar    
  14 C14           -3.0314     2.8095    -1.9995 C.ar    
  15 C15           -2.4135     3.0044    -3.2206 C.ar    
  16 C16           -1.0685     2.7212    -3.3677 C.ar    
  17 C17           -0.3405     2.2468    -2.2926 C.ar    
  18 C18           -0.5522    -0.6843     1.2554 C.3     
  19 C19           -0.6820    -0.5347    -1.2315 C.2     
  20 O20           -1.8211    -0.9324    -1.1667 O.2     
  21 O21           -0.0259    -0.5655    -2.4021 O.3     
  22 C22            0.1562    -1.0454    -4.7826 C.3     
  23 C23           -0.7469    -1.0895    -3.5483 C.3     
  24 H24           -0.6422     1.8014     1.0390 H       
  25 H25            1.4896     2.9527     0.0874 H       
  26 H26            3.8815    -1.0384    -0.2686 H       
  27 H27            6.3274    -0.8064    -0.3890 H       
  28 H28            7.3608     1.4250    -0.3176 H       
  29 H29            5.9560     3.4354    -0.1260 H       
  30 H30            3.5078     3.2242    -0.0121 H       
  31 H31           -2.7870     2.1788     0.0285 H       
  32 H32           -4.0822     3.0308    -1.8846 H       
  33 H33           -2.9817     3.3776    -4.0598 H       
  34 H34           -0.5859     2.8731    -4.3219 H       
  35 H35            0.7104     2.0256    -2.4076 H       
  36 H36           -1.6121    -0.4510     1.3568 H       
  37 H37           -0.4243    -1.7634     1.1699 H       
  38 H38           -0.0151    -0.3231     2.1324 H       
  39 H39            1.0447    -1.6511    -4.6044 H       
  40 H40           -0.3851    -1.4388    -5.6430 H       
  41 H41            0.4522    -0.0151    -4.9796 H       
  42 H42           -1.0430    -2.1199    -3.3513 H       
  43 H43           -1.6355    -0.4839    -3.7265 H       
@<TRIPOS>BOND
   1    1    2 1
   2    1    3 1
   3    1    7 1
   4    1   24 1
   5    2   18 1
   6    2   19 1
   7    2    5 1
   8    3    4 1
   9    3   25 1
  10    4    5 2
  11    4    6 1
  12    6    8 ar
  13    6   12 ar
  14    7   13 ar
  15    7   17 ar
  16    8    9 ar
  17    8   26 1
  18    9   10 ar
  19    9   27 1
  20   10   11 ar
  21   10   28 1
  22   11   12 ar
  23   11   29 1
  24   12   30 1
  25   13   14 ar
  26   13   31 1
  27   14   15 ar
  28   14   32 1
  29   15   16 ar
  30   15   33 1
  31   16   17 ar
  32   16   34 1
  33   17   35 1
  34   18   36 1
  35   18   37 1
  36   18   38 1
  37   19   20 2
  38   19   21 1
  39   21   23 1
  40   22   23 1
  41   22   39 1
  42   22   40 1
  43   22   41 1
  44   23   42 1
  45   23   43 1

#	End of record

