#	Name: ASD01816745
#	Creating user name:	WinNT
#	Creation time:	15. 06. 2019 19:35

#	Modifying user name:	WinNT
#	Modification time:	15. 06. 2019 19:35

#	Program:	/corina/corina34_cracker 3.40 0067  02.08.2006

@<TRIPOS>MOLECULE
ASD01816745
  60   64    0    0    0
SMALL
NO_CHARGES


@<TRIPOS>ATOM
   1 C1            -0.0076     1.3419    -0.1370 C.2     
   2 C2             0.0230    -0.0575    -0.0652 C.2     
   3 C3             1.2244    -0.7006    -0.0036 C.2     
   4 C4             2.4113     0.0512    -0.0131 C.2     
   5 N5             2.3519     1.4167    -0.0835 N.am    
   6 C6             1.1451     2.0484    -0.1451 C.2     
   7 C7             3.6473    -0.6067     0.0502 C.2     
   8 C8             4.8061     0.1149     0.0415 C.2     
   9 C9             4.7408     1.5179    -0.0315 C.2     
  10 C10            3.4831     2.1503    -0.0937 C.2     
  11 C11            3.6970    -2.1109     0.1284 C.3     
  12 O12            3.4175     3.3664    -0.1572 O.2     
  13 C13            5.9710     2.3159    -0.0418 C.2     
  14 N14            6.6915     2.4289    -1.1752 N.am    
  15 O15            6.3414     2.8763     0.9732 O.2     
  16 N16            3.8668    -2.6660    -1.2210 N.3     
  17 C17            4.1564    -4.1057    -1.1655 C.3     
  18 C18            4.2472    -4.6603    -2.5892 C.3     
  19 N19            5.2972    -3.9428    -3.3255 N.3     
  20 C20            5.0077    -2.5031    -3.3810 C.3     
  21 C21            4.9169    -1.9485    -1.9574 C.3     
  22 C22            5.4581    -4.4688    -4.6041 C.ar    
  23 C23            6.4080    -3.9253    -5.4640 C.ar    
  24 C24            6.5697    -4.4431    -6.7291 C.ar    
  25 C25            5.7788    -5.5164    -7.1498 C.ar    
  26 C26            4.8258    -6.0602    -6.2833 C.ar    
  27 C27            4.6727    -5.5407    -5.0178 C.ar    
  28 C28            7.8874     3.2659    -1.3504 C.3     
  29 C29            8.3547     3.0971    -2.8115 C.3     
  30 C30            7.0689     2.6157    -3.5342 C.3     
  31 C31            6.4148     1.7286    -2.4426 C.3     
  32 C32            5.9439    -6.0573    -8.4654 C.1     
  33 N33            6.0750    -6.4864    -9.5090 N.1     
  34 H34           -0.9551     1.8574    -0.1906 H       
  35 H35           -0.8975    -0.6223    -0.0584 H       
  36 H36            1.2629    -1.7784     0.0524 H       
  37 H37            1.1096     3.1264    -0.2005 H       
  38 H38            5.7618    -0.3857     0.0904 H       
  39 H39            4.5360    -2.4146     0.7545 H       
  40 H40            2.7680    -2.4831     0.5602 H       
  41 H41            5.1040    -4.2665    -0.6515 H       
  42 H42            3.3586    -4.6166    -0.6265 H       
  43 H43            4.4906    -5.7221    -2.5510 H       
  44 H44            3.2909    -4.5240    -3.0942 H       
  45 H45            5.8054    -1.9922    -3.9201 H       
  46 H46            4.0600    -2.3423    -3.8950 H       
  47 H47            4.6735    -0.8867    -1.9955 H       
  48 H48            5.8731    -2.0848    -1.4523 H       
  49 H49            7.0187    -3.0962    -5.1384 H       
  50 H50            7.3066    -4.0205    -7.3961 H       
  51 H51            4.2129    -6.8891    -6.6052 H       
  52 H52            3.9370    -5.9605    -4.3478 H       
  53 H53            7.6404     4.3101    -1.1585 H       
  54 H54            8.6728     2.9375    -0.6698 H       
  55 H55            8.6935     4.0490    -3.2205 H       
  56 H56            9.1405     2.3449    -2.8806 H       
  57 H57            6.4278     3.4583    -3.7936 H       
  58 H58            7.3146     2.0271    -4.4181 H       
  59 H59            6.8655     0.7361    -2.4400 H       
  60 H60            5.3394     1.6574    -2.6057 H       
@<TRIPOS>BOND
   1    1    2 1
   2    1    6 2
   3    1   34 1
   4    2    3 2
   5    2   35 1
   6    3    4 1
   7    3   36 1
   8    4    5 1
   9    4    7 2
  10    5    6 1
  11    5   10 am
  12    6   37 1
  13    7    8 1
  14    7   11 1
  15    8    9 2
  16    8   38 1
  17    9   10 1
  18    9   13 1
  19   10   12 2
  20   11   16 1
  21   11   39 1
  22   11   40 1
  23   13   15 2
  24   13   14 am
  25   14   28 1
  26   14   31 1
  27   16   17 1
  28   16   21 1
  29   17   18 1
  30   17   41 1
  31   17   42 1
  32   18   19 1
  33   18   43 1
  34   18   44 1
  35   19   20 1
  36   19   22 1
  37   20   21 1
  38   20   45 1
  39   20   46 1
  40   21   47 1
  41   21   48 1
  42   22   23 ar
  43   22   27 ar
  44   23   24 ar
  45   23   49 1
  46   24   25 ar
  47   24   50 1
  48   25   26 ar
  49   25   32 1
  50   26   27 ar
  51   26   51 1
  52   27   52 1
  53   28   29 1
  54   28   53 1
  55   28   54 1
  56   29   30 1
  57   29   55 1
  58   29   56 1
  59   30   31 1
  60   30   57 1
  61   30   58 1
  62   31   59 1
  63   31   60 1
  64   32   33 3

#	End of record

