#	Name: ASD03080226
#	Creating user name:	WinNT
#	Creation time:	15. 06. 2019 20:26

#	Modifying user name:	WinNT
#	Modification time:	15. 06. 2019 20:26

#	Program:	/corina/corina34_cracker 3.40 0067  02.08.2006

@<TRIPOS>MOLECULE
ASD03080226
  54   53    0    0    0
SMALL
NO_CHARGES


@<TRIPOS>ATOM
   1 C1            -0.0167     1.3823     0.0096 C.ar    
   2 C2             0.0021    -0.0041     0.0020 C.ar    
   3 C3             1.2303    -0.6473    -0.0132 C.ar    
   4 C4             2.3867     0.1094    -0.0201 C.ar    
   5 N5             2.3308     1.4269    -0.0121 N.ar    
   6 C6             1.1808     2.0721     0.0019 C.ar    
   7 C7             3.5790     2.1939    -0.0194 C.3     
   8 C8             4.0000     2.4691    -1.4644 C.3     
   9 C9             5.3035     3.2701    -1.4720 C.3     
  10 C10            5.7245     3.5453    -2.9170 C.3     
  11 C11            7.0281     4.3463    -2.9246 C.3     
  12 C12            7.4491     4.6215    -4.3696 C.3     
  13 C13            8.7526     5.4225    -4.3772 C.3     
  14 C14            9.1736     5.6978    -5.8222 C.3     
  15 C15           10.4772     6.4988    -5.8299 C.3     
  16 C16           10.8982     6.7740    -7.2748 C.3     
  17 N17           12.1463     7.5410    -7.2821 N.ar    
  18 C18           12.0905     8.8584    -7.2686 C.ar    
  19 C19           13.2963     6.8958    -7.2966 C.ar    
  20 C20           14.4939     7.5856    -7.3034 C.ar    
  21 C21           14.4751     8.9719    -7.2949 C.ar    
  22 C22           13.2470     9.6151    -7.2750 C.ar    
  23 H23           -0.9554     1.9164     0.0170 H       
  24 H24           -0.9181    -0.5695     0.0081 H       
  25 H25            1.2826    -1.7260    -0.0191 H       
  26 H26            3.3473    -0.3840    -0.0320 H       
  27 H27            1.1748     3.1521     0.0074 H       
  28 H28            3.4275     3.1394     0.5013 H       
  29 H29            4.3592     1.6229     0.4839 H       
  30 H30            4.1515     1.5235    -1.9851 H       
  31 H31            3.2197     3.0401    -1.9677 H       
  32 H32            5.1520     4.2156    -0.9513 H       
  33 H33            6.0838     2.6991    -0.9687 H       
  34 H34            5.8760     2.5998    -3.4377 H       
  35 H35            4.9443     4.1163    -3.4203 H       
  36 H36            6.8766     5.2918    -2.4040 H       
  37 H37            7.8083     3.7753    -2.4213 H       
  38 H38            7.6006     3.6760    -4.8903 H       
  39 H39            6.6688     5.1925    -4.8729 H       
  40 H40            8.6011     6.3681    -3.8566 H       
  41 H41            9.5329     4.8516    -3.8740 H       
  42 H42            9.3251     4.7522    -6.3429 H       
  43 H43            8.3934     6.2687    -6.3255 H       
  44 H44           10.3257     7.4443    -5.3092 H       
  45 H45           11.2574     5.9278    -5.3266 H       
  46 H46           11.0497     5.8285    -7.7955 H       
  47 H47           10.1179     7.3450    -7.7781 H       
  48 H48           11.1299     9.3518    -7.2528 H       
  49 H49           13.3024     5.8158    -7.3028 H       
  50 H50           15.4325     7.0515    -7.3149 H       
  51 H51           15.3953     9.5373    -7.2999 H       
  52 H52           13.1947    10.6938    -7.2645 H       
  53 I53           20.4325    15.6938     5.5013 I       
  54 I54           25.4325    20.6938    10.5013 I       
@<TRIPOS>BOND
   1    1    2 ar
   2    1    6 ar
   3    1   23 1
   4    2    3 ar
   5    2   24 1
   6    3    4 ar
   7    3   25 1
   8    4    5 ar
   9    4   26 1
  10    5    6 ar
  11    5    7 1
  12    6   27 1
  13    7    8 1
  14    7   28 1
  15    7   29 1
  16    8    9 1
  17    8   30 1
  18    8   31 1
  19    9   10 1
  20    9   32 1
  21    9   33 1
  22   10   11 1
  23   10   34 1
  24   10   35 1
  25   11   12 1
  26   11   36 1
  27   11   37 1
  28   12   13 1
  29   12   38 1
  30   12   39 1
  31   13   14 1
  32   13   40 1
  33   13   41 1
  34   14   15 1
  35   14   42 1
  36   14   43 1
  37   15   16 1
  38   15   44 1
  39   15   45 1
  40   16   17 1
  41   16   46 1
  42   16   47 1
  43   17   19 ar
  44   17   18 ar
  45   18   22 ar
  46   18   48 1
  47   19   20 ar
  48   19   49 1
  49   20   21 ar
  50   20   50 1
  51   21   22 ar
  52   21   51 1
  53   22   52 1

#	End of record

