#	Name: ASD01916494
#	Creating user name:	WinNT
#	Creation time:	15. 06. 2019 20:07

#	Modifying user name:	WinNT
#	Modification time:	15. 06. 2019 20:07

#	Program:	/corina/corina34_cracker 3.40 0067  02.08.2006

@<TRIPOS>MOLECULE
ASD01916494
  50   54    0    0    0
SMALL
NO_CHARGES


@<TRIPOS>ATOM
   1 C1            -0.0171     1.4099     0.0098 C.ar    
   2 C2             0.0021    -0.0041     0.0020 C.ar    
   3 C3            -1.1918    -0.7255     0.0245 C.ar    
   4 C4            -2.3846    -0.0643     0.0483 C.ar    
   5 C5            -2.4220     1.3384     0.0487 C.ar    
   6 C6            -1.2409     2.0763     0.0308 C.ar    
   7 N7             1.1593     2.0780     0.0021 N.2     
   8 C8             2.3167     1.4704    -0.0234 C.2     
   9 N9             2.4212     0.1162    -0.0833 N.am    
  10 C10            1.3113    -0.6649    -0.0363 C.2     
  11 C11           -3.6834     2.0160     0.0686 C.1     
  12 C12           -4.7175     2.5716     0.0848 C.1     
  13 C13           -5.9789     3.2492     0.1047 C.ar    
  14 N14           -6.0142     4.5782     0.1051 N.ar    
  15 C15           -7.1539     5.2378     0.1230 C.ar    
  16 C16           -8.3635     4.5670     0.1427 C.ar    
  17 C17           -8.3738     3.1786     0.1430 C.ar    
  18 C18           -7.1639     2.5088     0.1178 C.ar    
  19 O19            1.4002    -1.8790    -0.0259 O.2     
  20 C20            3.5456     2.3587     0.0449 C.3     
  21 N21            4.6857     1.6220    -0.4894 N.3     
  22 C22            4.8179     0.3493     0.2766 C.3     
  23 C23            3.7138    -0.5734    -0.2250 C.3     
  24 C24            5.9836     2.2936    -0.3562 C.3     
  25 C25            7.0357     1.1764    -0.1731 C.3     
  26 C26            6.2195    -0.1422    -0.1348 C.3     
  27 C27            6.2893     3.1009    -1.6194 C.3     
  28 C28            5.9760     3.2132     0.8666 C.3     
  29 H29           -1.1716    -1.8053     0.0227 H       
  30 H30           -3.3076    -0.6248     0.0666 H       
  31 H31           -1.2731     3.1558     0.0321 H       
  32 H32           -7.1440     6.3177     0.1228 H       
  33 H33           -9.2919     5.1185     0.1580 H       
  34 H34           -9.3061     2.6337     0.1582 H       
  35 H35           -7.1354     1.4292     0.1169 H       
  36 H36            3.3803     3.2576    -0.5490 H       
  37 H37            3.7410     2.6334     1.0814 H       
  38 H38            4.7387     0.5171     1.3507 H       
  39 H39            3.7062    -1.4893     0.3659 H       
  40 H40            3.8867    -0.8139    -1.2739 H       
  41 H41            7.7294     1.1680    -1.0138 H       
  42 H42            7.5759     1.3147     0.7634 H       
  43 H43            6.6242    -0.8270     0.6104 H       
  44 H44            6.1927    -0.6102    -1.1188 H       
  45 H45            5.5121     3.8505    -1.7685 H       
  46 H46            7.2546     3.5952    -1.5100 H       
  47 H47            6.3190     2.4322    -2.4797 H       
  48 H48            5.7842     2.6239     1.7632 H       
  49 H49            6.9437     3.7066     0.9562 H       
  50 H50            5.1945     3.9643     0.7515 H       
@<TRIPOS>BOND
   1    1    2 ar
   2    1    7 1
   3    1    6 ar
   4    2    3 ar
   5    2   10 1
   6    3    4 ar
   7    3   29 1
   8    4    5 ar
   9    4   30 1
  10    5    6 ar
  11    5   11 1
  12    6   31 1
  13    7    8 2
  14    8    9 1
  15    8   20 1
  16    9   10 am
  17    9   23 1
  18   10   19 2
  19   11   12 3
  20   12   13 1
  21   13   14 ar
  22   13   18 ar
  23   14   15 ar
  24   15   16 ar
  25   15   32 1
  26   16   17 ar
  27   16   33 1
  28   17   18 ar
  29   17   34 1
  30   18   35 1
  31   20   21 1
  32   20   36 1
  33   20   37 1
  34   21   22 1
  35   21   24 1
  36   22   23 1
  37   22   26 1
  38   22   38 1
  39   23   39 1
  40   23   40 1
  41   24   25 1
  42   24   27 1
  43   24   28 1
  44   25   26 1
  45   25   41 1
  46   25   42 1
  47   26   43 1
  48   26   44 1
  49   27   45 1
  50   27   46 1
  51   27   47 1
  52   28   48 1
  53   28   49 1
  54   28   50 1

#	End of record

