#	Name: ASD02588024
#	Creating user name:	WinNT
#	Creation time:	15. 06. 2019 20:25

#	Modifying user name:	WinNT
#	Modification time:	15. 06. 2019 20:25

#	Program:	/corina/corina34_cracker 3.40 0067  02.08.2006

@<TRIPOS>MOLECULE
ASD02588024
  46   48    0    0    0
SMALL
NO_CHARGES


@<TRIPOS>ATOM
   1 C1             0.0804     1.4999     0.0104 C.2     
   2 N2            -0.0628     0.1394     0.0135 N.pl3   
   3 N3            -1.2461    -0.3743     0.0406 N.2     
   4 C4            -2.3261     0.3731     0.0655 C.2     
   5 N5            -2.2621     1.7115     0.0642 N.2     
   6 C6            -1.0827     2.3118     0.0425 C.2     
   7 C7             1.4470     1.8045    -0.0209 C.2     
   8 C8             2.1414     0.5706    -0.0370 C.2     
   9 C9             1.1788    -0.4396    -0.0151 C.2     
  10 N10           -0.9872     3.6897     0.0406 N.pl3   
  11 C11            2.0447     3.1454    -0.0345 C.2     
  12 C12            3.6041     0.3878    -0.0706 C.2     
  13 C13           -3.6524    -0.2824     0.0953 C.2     
  14 O14           -4.6622     0.3914     0.1186 O.2     
  15 C15           -3.7483    -1.7626     0.0968 C.2     
  16 S16           -2.3244    -2.7126     0.0639 S.2     
  17 N17           -4.9563    -2.3596     0.1239 N.am    
  18 S18            2.3179     3.9757     1.4376 S.2     
  19 N19            2.3783     3.7227    -1.2057 N.am    
  20 N20            4.3113     0.4005     1.0766 N.am    
  21 S21            4.4040     0.1592    -1.5669 S.2     
  22 C22            1.4504    -1.8789    -0.0211 C.2     
  23 O23            2.5954    -2.2820     0.0538 O.2     
  24 O24            0.4304    -2.7575    -0.1097 O.3     
  25 C25            0.7684    -4.1459    -0.1101 C.3     
  26 C26           -0.4896    -4.9691    -0.2148 C.ar    
  27 C27           -0.9810    -5.3255    -1.4567 C.ar    
  28 C28           -2.1350    -6.0805    -1.5528 C.ar    
  29 C29           -2.7973    -6.4795    -0.4069 C.ar    
  30 C30           -2.3054    -6.1239     0.8351 C.ar    
  31 C31           -1.1490    -5.3725     0.9312 C.ar    
  32 H32           -1.7896     4.2314    -0.0187 H       
  33 H33           -0.1177     4.1156     0.0986 H       
  34 H34           -5.7630    -1.8213     0.1425 H       
  35 H35           -5.0190    -3.3276     0.1249 H       
  36 H36            2.1575     3.2847    -2.0426 H       
  37 H37            2.8393     4.5762    -1.2119 H       
  38 H38            3.8697     0.6021     1.9164 H       
  39 H39            5.2619     0.2081     1.0625 H       
  40 H40            1.4158    -4.3621    -0.9599 H       
  41 H41            1.2886    -4.3935     0.8152 H       
  42 H42           -0.4636    -5.0138    -2.3520 H       
  43 H43           -2.5193    -6.3583    -2.5231 H       
  44 H44           -3.6993    -7.0688    -0.4819 H       
  45 H45           -2.8230    -6.4353     1.7303 H       
  46 H46           -0.7626    -5.0978     1.9016 H       
@<TRIPOS>BOND
   1    1    2 1
   2    1    7 2
   3    1    6 1
   4    2    3 1
   5    2    9 1
   6    3    4 2
   7    4    5 1
   8    4   13 1
   9    5    6 2
  10    6   10 1
  11    7    8 1
  12    7   11 1
  13    8    9 2
  14    8   12 1
  15    9   22 1
  16   10   32 1
  17   10   33 1
  18   11   18 2
  19   11   19 am
  20   12   20 am
  21   12   21 2
  22   13   14 2
  23   13   15 1
  24   15   16 2
  25   15   17 am
  26   17   34 1
  27   17   35 1
  28   19   36 1
  29   19   37 1
  30   20   38 1
  31   20   39 1
  32   22   23 2
  33   22   24 1
  34   24   25 1
  35   25   26 1
  36   25   40 1
  37   25   41 1
  38   26   27 ar
  39   26   31 ar
  40   27   28 ar
  41   27   42 1
  42   28   29 ar
  43   28   43 1
  44   29   30 ar
  45   29   44 1
  46   30   31 ar
  47   30   45 1
  48   31   46 1

#	End of record

