#	Name: ASD03730862
#	Creating user name:	WinNT
#	Creation time:	15. 06. 2019 20:44

#	Modifying user name:	WinNT
#	Modification time:	15. 06. 2019 20:44

#	Program:	/corina/corina34_cracker 3.40 0067  02.08.2006

@<TRIPOS>MOLECULE
ASD03730862
  71   77    0    0    0
SMALL
NO_CHARGES


@<TRIPOS>ATOM
   1 C1             0.5502     1.3628    -0.1690 C.2     
   2 C2             0.3985    -0.1038    -0.0594 C.ar    
   3 C3             1.5085    -0.9367    -0.2108 C.ar    
   4 C4             1.3601    -2.3041    -0.1069 C.ar    
   5 C5             0.1143    -2.8507     0.1464 C.ar    
   6 C6            -0.9897    -2.0310     0.2975 C.ar    
   7 C7            -0.8540    -0.6612     0.2016 C.ar    
   8 O8             1.6562     1.8518    -0.2923 O.2     
   9 N9            -0.5382     2.1571    -0.1378 N.am    
  10 C10            2.8658    -0.3432    -0.4876 C.3     
  11 O11            2.6458    -7.3025    -2.2794 O.3     
  12 C12            3.2639    -8.5814    -2.5147 C.3     
  13 O13            4.5066    -8.2474    -3.1606 O.3     
  14 C14            4.8216    -6.9933    -2.7214 C.ar    
  15 C15            3.6767    -6.4125    -2.1806 C.ar    
  16 C16            6.0122    -6.2893    -2.7386 C.ar    
  17 C17            6.0763    -4.9996    -2.2198 C.ar    
  18 C18            4.9241    -4.4268    -1.6898 C.ar    
  19 C19            3.7369    -5.1285    -1.6656 C.ar    
  20 O20            7.1391    -4.1500    -2.1245 O.3     
  21 C21            5.3013    -3.0399    -1.2425 C.3     
  22 C22            6.6575    -2.8074    -1.9224 C.3     
  23 N23            3.8677    -1.4114    -0.5234 N.am    
  24 C24            4.2852    -2.0140    -1.6546 C.2     
  25 C25            5.3971    -2.9277     0.2502 C.ar    
  26 C26            6.1402    -3.5814     1.2076 C.ar    
  27 C27            6.0033    -3.2423     2.5420 C.ar    
  28 C28            5.1180    -2.2461     2.9116 C.ar    
  29 C29            4.3707    -1.5891     1.9564 C.ar    
  30 C30            4.5024    -1.9235     0.6108 C.ar    
  31 O31            3.9133    -1.7742    -2.7839 O.2     
  32 C32           -0.3825     3.6137    -0.1489 C.3     
  33 C33           -0.0842     4.1055     1.2689 C.3     
  34 C34           -1.6744     4.2609    -0.6519 C.3     
  35 C35           -1.5118     5.7822    -0.6634 C.3     
  36 C36           -2.8037     6.4294    -1.1665 C.3     
  37 C37           -3.1019     5.9376    -2.5842 C.3     
  38 C38           -3.2645     4.4163    -2.5727 C.3     
  39 C39           -1.9726     3.7691    -2.0697 C.3     
  40 H40            2.2181    -2.9496    -0.2238 H       
  41 H41            0.0034    -3.9220     0.2262 H       
  42 H42           -1.9593    -2.4638     0.4950 H       
  43 H43           -1.7160    -0.0221     0.3238 H       
  44 H44           -1.4246     1.7642    -0.1081 H       
  45 H45            2.8484     0.1709    -1.4486 H       
  46 H46            3.1194     0.3666     0.2997 H       
  47 H47            3.4487    -9.0967    -1.5721 H       
  48 H48            2.6433    -9.1919    -3.1707 H       
  49 H49            6.8980    -6.7436    -3.1575 H       
  50 H50            2.8518    -4.6752    -1.2442 H       
  51 H51            7.3279    -2.2500    -1.2683 H       
  52 H52            6.5297    -2.2944    -2.8756 H       
  53 H53            6.8307    -4.3591     0.9167 H       
  54 H54            6.5866    -3.7541     3.2931 H       
  55 H55            5.0110    -1.9815     3.9533 H       
  56 H56            3.6811    -0.8126     2.2529 H       
  57 H57            0.4412     3.8861    -0.8087 H       
  58 H58           -0.9493     3.9229     1.9064 H       
  59 H59            0.7786     3.5701     1.6652 H       
  60 H60            0.1307     5.1738     1.2453 H       
  61 H61           -2.4981     3.9885     0.0080 H       
  62 H62           -1.2993     6.1325     0.3466 H       
  63 H63           -0.6881     6.0546    -1.3233 H       
  64 H64           -3.6274     6.1570    -0.5066 H       
  65 H65           -2.6878     7.5132    -1.1747 H       
  66 H66           -4.0223     6.3987    -2.9426 H       
  67 H67           -2.2782     6.2100    -3.2441 H       
  68 H68           -4.0882     4.1439    -1.9129 H       
  69 H69           -3.4770     4.0660    -3.5828 H       
  70 H70           -1.1489     4.0415    -2.7295 H       
  71 H71           -2.0885     2.6853    -2.0615 H       
@<TRIPOS>BOND
   1    1    2 1
   2    1    8 2
   3    1    9 am
   4    2    3 ar
   5    2    7 ar
   6    3    4 ar
   7    3   10 1
   8    4    5 ar
   9    4   40 1
  10    5    6 ar
  11    5   41 1
  12    6    7 ar
  13    6   42 1
  14    7   43 1
  15    9   32 1
  16    9   44 1
  17   10   23 1
  18   10   45 1
  19   10   46 1
  20   11   12 1
  21   11   15 1
  22   12   13 1
  23   12   47 1
  24   12   48 1
  25   13   14 1
  26   14   15 ar
  27   14   16 ar
  28   15   19 ar
  29   16   17 ar
  30   16   49 1
  31   17   18 ar
  32   17   20 1
  33   18   19 ar
  34   18   21 1
  35   19   50 1
  36   20   22 1
  37   21   22 1
  38   21   24 1
  39   21   25 1
  40   22   51 1
  41   22   52 1
  42   23   24 am
  43   23   30 1
  44   24   31 2
  45   25   26 ar
  46   25   30 ar
  47   26   27 ar
  48   26   53 1
  49   27   28 ar
  50   27   54 1
  51   28   29 ar
  52   28   55 1
  53   29   30 ar
  54   29   56 1
  55   32   33 1
  56   32   34 1
  57   32   57 1
  58   33   58 1
  59   33   59 1
  60   33   60 1
  61   34   35 1
  62   34   39 1
  63   34   61 1
  64   35   36 1
  65   35   62 1
  66   35   63 1
  67   36   37 1
  68   36   64 1
  69   36   65 1
  70   37   38 1
  71   37   66 1
  72   37   67 1
  73   38   39 1
  74   38   68 1
  75   38   69 1
  76   39   70 1
  77   39   71 1

#	End of record

