#	Name: ASD02198079
#	Creating user name:	WinNT
#	Creation time:	15. 06. 2019 20:18

#	Modifying user name:	WinNT
#	Modification time:	15. 06. 2019 20:18

#	Program:	/corina/corina34_cracker 3.40 0067  02.08.2006

@<TRIPOS>MOLECULE
ASD02198079
  48   51    0    0    0
SMALL
NO_CHARGES


@<TRIPOS>ATOM
   1 C1            -0.1858     1.3270     0.1079 C.2     
   2 C2            -0.2214    -0.0485     0.1867 C.2     
   3 C3            -1.4340    -0.7891     0.3651 C.1     
   4 S4             1.4121     1.8822    -0.1049 S.3     
   5 C5             2.0523     0.2468    -0.0893 C.2     
   6 C6             1.0295    -0.6537     0.0766 C.2     
   7 C7             3.4163    -0.0914    -0.2264 C.2     
   8 C8             4.4218     0.9661    -0.3977 C.2     
   9 O9             3.7601    -1.2624    -0.2026 O.2     
  10 N10            1.2214    -2.0269     0.1300 N.pl3   
  11 N11           -1.2927     2.1429     0.1848 N.pl3   
  12 N12           -2.3959    -1.3766     0.5067 N.1     
  13 C13            5.7643     0.7596    -0.5395 C.2     
  14 C14            6.5067     1.9007    -0.6862 C.2     
  15 C15            5.7854     3.0581    -0.6670 C.2     
  16 S16            4.0787     2.6896    -0.4591 S.3     
  17 C17            6.3516     4.4153    -0.8049 C.ar    
  18 C18            5.5063     5.5253    -0.7691 C.ar    
  19 C19            6.0523     6.7901    -0.8992 C.ar    
  20 C20            7.4259     6.9058    -1.0612 C.ar    
  21 C21            8.2054     5.7633    -1.0879 C.ar    
  22 N22            7.6626     4.5706    -0.9568 N.ar    
  23 O23           -3.1303     2.5425    -1.4808 O.2     
  24 C24           -3.0482     3.7503    -1.3742 C.2     
  25 O25           -3.9274     4.5447    -2.0161 O.3     
  26 C26           -1.9875     4.3460    -0.5431 C.ar    
  27 C27           -1.1375     3.5238     0.2142 C.ar    
  28 C28           -0.1411     4.0979     0.9933 C.ar    
  29 C29            0.0107     5.4694     1.0212 C.ar    
  30 C30           -0.8263     6.2836     0.2751 C.ar    
  31 C31           -1.8172     5.7325    -0.5080 C.ar    
  32 C32           -4.9456     3.8888    -2.8170 C.3     
  33 H33            2.1150    -2.3952     0.0484 H       
  34 H34            0.4620    -2.6185     0.2489 H       
  35 H35           -2.1806     1.7538     0.2184 H       
  36 H36            6.2057    -0.2261    -0.5358 H       
  37 H37            7.5797     1.8855    -0.8073 H       
  38 H38            4.4413     5.3989    -0.6418 H       
  39 H39            5.4235     7.6678    -0.8757 H       
  40 H40            7.8820     7.8791    -1.1658 H       
  41 H41            9.2744     5.8509    -1.2142 H       
  42 H42            0.5152     3.4705     1.5780 H       
  43 H43            0.7868     5.9109     1.6288 H       
  44 H44           -0.6989     7.3556     0.3045 H       
  45 H45           -2.4667     6.3718    -1.0874 H       
  46 H46           -5.5475     3.2408    -2.1798 H       
  47 H47           -5.5857     4.6411    -3.2780 H       
  48 H48           -4.4681     3.2923    -3.5943 H       
@<TRIPOS>BOND
   1    1    2 2
   2    1    4 1
   3    1   11 1
   4    2    3 1
   5    2    6 1
   6    3   12 3
   7    4    5 1
   8    5    6 2
   9    5    7 1
  10    6   10 1
  11    7    8 1
  12    7    9 2
  13    8   13 2
  14    8   16 1
  15   10   33 1
  16   10   34 1
  17   11   27 1
  18   11   35 1
  19   13   14 1
  20   13   36 1
  21   14   15 2
  22   14   37 1
  23   15   16 1
  24   15   17 1
  25   17   18 ar
  26   17   22 ar
  27   18   19 ar
  28   18   38 1
  29   19   20 ar
  30   19   39 1
  31   20   21 ar
  32   20   40 1
  33   21   22 ar
  34   21   41 1
  35   23   24 2
  36   24   25 1
  37   24   26 1
  38   25   32 1
  39   26   27 ar
  40   26   31 ar
  41   27   28 ar
  42   28   29 ar
  43   28   42 1
  44   29   30 ar
  45   29   43 1
  46   30   31 ar
  47   30   44 1
  48   31   45 1
  49   32   46 1
  50   32   47 1
  51   32   48 1

#	End of record

