#	Name: ASD01028179
#	Creating user name:	WinNT
#	Creation time:	15. 06. 2019 18:56

#	Modifying user name:	WinNT
#	Modification time:	15. 06. 2019 18:56

#	Program:	/corina/corina34_cracker 3.40 0067  02.08.2006

@<TRIPOS>MOLECULE
ASD01028179
  46   50    0    0    0
SMALL
NO_CHARGES


@<TRIPOS>ATOM
   1 N1            -0.0157     1.3082     0.0092 N.ar    
   2 C2             0.0021    -0.0041     0.0020 C.ar    
   3 C3             1.1922    -0.7202    -0.0132 C.ar    
   4 C4             2.3997    -0.0447    -0.0211 C.ar    
   5 C5             2.3688     1.3681    -0.0132 C.ar    
   6 C6             3.5518     2.1216    -0.0208 C.ar    
   7 C7             3.4891     3.4809    -0.0134 C.ar    
   8 C8             2.2563     4.1399     0.0018 C.ar    
   9 C9             1.0778     3.4287     0.0101 C.ar    
  10 C10            1.1142     2.0252     0.0023 C.ar    
  11 O11            2.2210     5.4978     0.0089 O.3     
  12 C12            3.4769     6.1794     0.0002 C.3     
  13 O13            3.5766    -0.7177    -0.0354 O.3     
  14 C14            3.5077    -2.1450    -0.0420 C.3     
  15 C15            6.8407    -3.5087     0.5369 C.2     
  16 C16            7.8408    -3.9187     1.4389 C.2     
  17 C17            7.6072    -3.8244     2.7745 C.2     
  18 C18            6.3754    -3.3209     3.2436 C.2     
  19 N19            5.4410    -2.9371     2.4021 N.2     
  20 N20            5.6507    -3.0223     1.0242 N.pl3   
  21 N21            5.6089    -3.0006    -1.1234 N.2     
  22 N22            6.7590    -3.4682    -0.7829 N.2     
  23 C23            4.9026    -2.7151    -0.0579 C.2     
  24 C24            6.1319    -3.2227     4.7038 C.ar    
  25 C25            4.9193    -2.7271     5.1786 C.ar    
  26 C26            4.6980    -2.6384     6.5401 C.ar    
  27 C27            5.6801    -3.0411     7.4308 C.ar    
  28 C28            6.8847    -3.5330     6.9630 C.ar    
  29 C29            7.1130    -3.6313     5.6051 C.ar    
  30 F30            3.5231    -2.1582     7.0029 F       
  31 H31           -0.9344    -0.5420     0.0084 H       
  32 H32            1.1751    -1.8000    -0.0185 H       
  33 H33            4.5103     1.6241    -0.0322 H       
  34 H34            4.4024     4.0574    -0.0190 H       
  35 H35            0.1306     3.9474     0.0219 H       
  36 H36            3.3061     7.2559     0.0072 H       
  37 H37            4.0499     5.8967     0.8833 H       
  38 H38            4.0327     5.9056    -0.8966 H       
  39 H39            2.9853    -2.4876     0.8512 H       
  40 H40            2.9687    -2.4787    -0.9287 H       
  41 H41            8.7816    -4.3037     1.0742 H       
  42 H42            8.3654    -4.1357     3.4778 H       
  43 H43            4.1541    -2.4126     4.4843 H       
  44 H44            5.5043    -2.9702     8.4940 H       
  45 H45            7.6471    -3.8448     7.6615 H       
  46 H46            8.0527    -4.0203     5.2416 H       
@<TRIPOS>BOND
   1    1    2 ar
   2    1   10 ar
   3    2    3 ar
   4    2   31 1
   5    3    4 ar
   6    3   32 1
   7    4    5 ar
   8    4   13 1
   9    5    6 ar
  10    5   10 ar
  11    6    7 ar
  12    6   33 1
  13    7    8 ar
  14    7   34 1
  15    8    9 ar
  16    8   11 1
  17    9   10 ar
  18    9   35 1
  19   11   12 1
  20   12   36 1
  21   12   37 1
  22   12   38 1
  23   13   14 1
  24   14   23 1
  25   14   39 1
  26   14   40 1
  27   15   16 1
  28   15   20 1
  29   15   22 2
  30   16   17 2
  31   16   41 1
  32   17   18 1
  33   17   42 1
  34   18   19 2
  35   18   24 1
  36   19   20 1
  37   20   23 1
  38   21   22 1
  39   21   23 2
  40   24   25 ar
  41   24   29 ar
  42   25   26 ar
  43   25   43 1
  44   26   27 ar
  45   26   30 1
  46   27   28 ar
  47   27   44 1
  48   28   29 ar
  49   28   45 1
  50   29   46 1

#	End of record

