#	Name: ASD03091166
#	Creating user name:	WinNT
#	Creation time:	15. 06. 2019 20:30

#	Modifying user name:	WinNT
#	Modification time:	15. 06. 2019 20:30

#	Program:	/corina/corina34_cracker 3.40 0067  02.08.2006

@<TRIPOS>MOLECULE
ASD03091166
  29   32    0    0    0
SMALL
NO_CHARGES


@<TRIPOS>ATOM
   1 O1            -0.0162     1.3445     0.0094 O.3     
   2 C2             0.0021    -0.0041     0.0020 C.2     
   3 N3             1.2614    -0.3803    -0.0120 N.2     
   4 N4             2.0181     0.6602    -0.0137 N.2     
   5 C5             1.2732     1.7417    -0.0007 C.2     
   6 C6             0.8556     4.2024     0.0156 C.ar    
   7 C7             1.7581     3.1372     0.0017 C.ar    
   8 C8             3.1305     3.4141    -0.0094 C.ar    
   9 C9             3.5324     4.7383    -0.0061 C.ar    
  10 C10            2.5750     5.7365     0.0079 C.ar    
  11 N11            1.2879     5.4461     0.0177 N.ar    
  12 C12           -3.3787    -2.5607     0.0197 C.2     
  13 C13           -3.5922    -1.1654     0.0294 C.2     
  14 C14           -2.5261    -0.3277     0.0244 C.2     
  15 C15           -1.1760    -0.8942     0.0085 C.2     
  16 C16           -1.0123    -2.2466    -0.0008 C.2     
  17 N17           -2.0987    -3.0766     0.0047 N.pl3   
  18 C18           -2.2195    -4.4293    -0.0012 C.2     
  19 N19           -3.4881    -4.7488     0.0094 N.2     
  20 C20           -4.2347    -3.6436     0.0275 C.2     
  21 H21           -0.2062     4.0046     0.0197 H       
  22 H22            3.8568     2.6148    -0.0199 H       
  23 H23            4.5826     4.9897    -0.0140 H       
  24 H24            2.8861     6.7707     0.0105 H       
  25 H25           -4.5965    -0.7683     0.0407 H       
  26 H26           -2.6707     0.7425     0.0313 H       
  27 H27           -0.0172    -2.6661    -0.0129 H       
  28 H28           -1.3981    -5.1305    -0.0133 H       
  29 H29           -5.3139    -3.6033     0.0437 H       
@<TRIPOS>BOND
   1    1    2 1
   2    1    5 1
   3    2    3 2
   4    2   15 1
   5    3    4 1
   6    4    5 2
   7    5    7 1
   8    6    7 ar
   9    6   11 ar
  10    6   21 1
  11    7    8 ar
  12    8    9 ar
  13    8   22 1
  14    9   10 ar
  15    9   23 1
  16   10   11 ar
  17   10   24 1
  18   12   13 1
  19   12   17 1
  20   12   20 2
  21   13   14 2
  22   13   25 1
  23   14   15 1
  24   14   26 1
  25   15   16 2
  26   16   17 1
  27   16   27 1
  28   17   18 1
  29   18   19 2
  30   18   28 1
  31   19   20 1
  32   20   29 1

#	End of record

