#	Name: ASD01914301
#	Creating user name:	WinNT
#	Creation time:	15. 06. 2019 20:03

#	Modifying user name:	WinNT
#	Modification time:	15. 06. 2019 20:03

#	Program:	/corina/corina34_cracker 3.40 0067  02.08.2006

@<TRIPOS>MOLECULE
ASD01914301
  38   40    0    0    0
SMALL
NO_CHARGES


@<TRIPOS>ATOM
   1 C1             0.0213     1.5395    -0.1862 C.2     
   2 C2             0.0184     0.0432    -0.0064 C.3     
   3 O3             1.0675     2.1310    -0.3108 O.2     
   4 O4            -1.1387     2.2144    -0.2134 O.3     
   5 C5             2.2281    -0.5581     1.0599 C.2     
   6 N6             3.3793    -1.0436     0.6552 N.2     
   7 C7             3.3254    -1.2615    -0.6716 C.2     
   8 C8             2.0904    -0.8967    -1.1090 C.2     
   9 N9             1.3969    -0.4526    -0.0175 N.pl3   
  10 C10            1.8871    -0.1927     2.4518 C.ar    
  11 C11            0.8122     0.6594     2.7087 C.ar    
  12 C12            0.4985     0.9970     4.0086 C.ar    
  13 C13            1.2489     0.4920     5.0586 C.ar    
  14 C14            2.3174    -0.3546     4.8089 C.ar    
  15 C15            2.6357    -0.7034     3.5131 C.ar    
  16 F16            0.9380     0.8265     6.3301 F       
  17 C17            4.4220    -1.8047    -1.5108 C.ar    
  18 C18            5.6447    -2.1399    -0.9320 C.ar    
  19 C19            6.6615    -2.6445    -1.7161 C.ar    
  20 C20            6.4687    -2.8178    -3.0772 C.ar    
  21 C21            5.2551    -2.4859    -3.6567 C.ar    
  22 C22            4.2304    -1.9863    -2.8789 C.ar    
  23 C23            7.9841    -3.0074    -1.0913 C.3     
  24 F24            7.4674    -3.3114    -3.8415 F       
  25 H25           -0.4502    -0.2074     0.9453 H       
  26 H26           -0.5406    -0.4194    -0.8197 H       
  27 H27           -1.0863     3.1728    -0.3310 H       
  28 H28            1.7270    -0.9476    -2.1248 H       
  29 H29            0.2273     1.0540     1.8911 H       
  30 H30           -0.3332     1.6563     4.2086 H       
  31 H31            2.8990    -0.7454     5.6307 H       
  32 H32            3.4655    -1.3670     3.3199 H       
  33 H33            5.7961    -2.0045     0.1288 H       
  34 H34            5.1091    -2.6226    -4.7180 H       
  35 H35            3.2830    -1.7321    -3.3308 H       
  36 H36            7.9608    -4.0488    -0.7704 H       
  37 H37            8.7810    -2.8701    -1.8222 H       
  38 H38            8.1670    -2.3656    -0.2294 H       
@<TRIPOS>BOND
   1    1    2 1
   2    1    3 2
   3    1    4 1
   4    2    9 1
   5    2   25 1
   6    2   26 1
   7    4   27 1
   8    5    6 2
   9    5    9 1
  10    5   10 1
  11    6    7 1
  12    7    8 2
  13    7   17 1
  14    8    9 1
  15    8   28 1
  16   10   11 ar
  17   10   15 ar
  18   11   12 ar
  19   11   29 1
  20   12   13 ar
  21   12   30 1
  22   13   14 ar
  23   13   16 1
  24   14   15 ar
  25   14   31 1
  26   15   32 1
  27   17   18 ar
  28   17   22 ar
  29   18   19 ar
  30   18   33 1
  31   19   20 ar
  32   19   23 1
  33   20   21 ar
  34   20   24 1
  35   21   22 ar
  36   21   34 1
  37   22   35 1
  38   23   36 1
  39   23   37 1
  40   23   38 1

#	End of record

