#	Name: ASD01901252
#	Creating user name:	WinNT
#	Creation time:	15. 06. 2019 19:53

#	Modifying user name:	WinNT
#	Modification time:	15. 06. 2019 19:53

#	Program:	/corina/corina34_cracker 3.40 0067  02.08.2006

@<TRIPOS>MOLECULE
ASD01901252
  36   39    0    0    0
SMALL
NO_CHARGES


@<TRIPOS>ATOM
   1 C1            -0.0166     1.3749     0.0096 C.ar    
   2 C2             0.0021    -0.0041     0.0020 C.ar    
   3 C3             1.2078    -0.6830    -0.0127 C.ar    
   4 C4             2.4027     0.0149    -0.0203 C.ar    
   5 C5             2.3997     1.3941    -0.0134 C.ar    
   6 C6             1.1860     2.0866     0.0019 C.ar    
   7 C7             1.1748     3.5185     0.0093 C.1     
   8 C8             1.1656     4.6925     0.0153 C.1     
   9 C9             1.1543     6.1244     0.0226 C.ar    
  10 C10           -0.0678     8.1952     0.0508 C.ar    
  11 C11           -0.0607     6.8154     0.0433 C.ar    
  12 C12            2.3584     6.8345     0.0149 C.ar    
  13 C13            2.3438     8.2143     0.0225 C.ar    
  14 C14            1.1325     8.8988     0.0382 C.ar    
  15 F15           -1.2417     8.8638     0.0703 F       
  16 N16            1.1215    10.3004     0.0459 N.am    
  17 C17            1.1322    10.9619     1.2199 C.2     
  18 C18            1.0993    13.0639     0.0207 C.2     
  19 N19            1.0950    12.3141    -1.1598 N.am    
  20 C20            1.1059    10.9727    -1.1177 C.2     
  21 O21            1.1021    10.3483    -2.1612 O.2     
  22 O22            1.1517    10.3468     2.2710 O.2     
  23 F23            3.5070     8.9014     0.0151 F       
  24 C24            1.1046    14.8333     1.3944 C.2     
  25 N25            1.0910    14.3770     0.1894 N.2     
  26 C26            1.1210    12.3768     1.2218 C.2     
  27 S27            1.1299    13.5560     2.5281 S.3     
  28 H28           -0.9584     1.9035     0.0169 H       
  29 H29           -0.9266    -0.5554     0.0079 H       
  30 H30            1.2163    -1.7630    -0.0178 H       
  31 H31            3.3399    -0.5217    -0.0315 H       
  32 H32            3.3331     1.9375    -0.0190 H       
  33 H33           -0.9928     6.2699     0.0530 H       
  34 H34            3.2989     6.3038     0.0034 H       
  35 H35            1.0799    12.7677    -2.0171 H       
  36 H36            1.0999    15.8820     1.6527 H       
@<TRIPOS>BOND
   1    1    2 ar
   2    1    6 ar
   3    1   28 1
   4    2    3 ar
   5    2   29 1
   6    3    4 ar
   7    3   30 1
   8    4    5 ar
   9    4   31 1
  10    5    6 ar
  11    5   32 1
  12    6    7 1
  13    7    8 3
  14    8    9 1
  15    9   12 ar
  16    9   11 ar
  17   10   11 ar
  18   10   14 ar
  19   10   15 1
  20   11   33 1
  21   12   13 ar
  22   12   34 1
  23   13   14 ar
  24   13   23 1
  25   14   16 1
  26   16   17 am
  27   16   20 am
  28   17   26 1
  29   17   22 2
  30   18   19 1
  31   18   26 2
  32   18   25 1
  33   19   20 am
  34   19   35 1
  35   20   21 2
  36   24   25 2
  37   24   27 1
  38   24   36 1
  39   26   27 1

#	End of record

