#	Name: ASD01918075
#	Creating user name:	WinNT
#	Creation time:	15. 06. 2019 20:10

#	Modifying user name:	WinNT
#	Modification time:	15. 06. 2019 20:10

#	Program:	/corina/corina34_cracker 3.40 0067  02.08.2006

@<TRIPOS>MOLECULE
ASD01918075
  41   43    0    0    0
SMALL
NO_CHARGES


@<TRIPOS>ATOM
   1 C1            -0.0167     1.3796     0.0096 C.ar    
   2 C2             0.0021    -0.0041     0.0020 C.ar    
   3 C3             1.2058    -0.6865    -0.0127 C.ar    
   4 C4             2.3967     0.0091    -0.0204 C.ar    
   5 C5             2.3857     1.4065    -0.0133 C.ar    
   6 C6             1.1662     2.0887     0.0021 C.ar    
   7 C7             3.6181     2.1358    -0.0207 C.1     
   8 C8             4.6284     2.7336    -0.0268 C.1     
   9 C9             5.8608     3.4629    -0.0342 C.ar    
  10 C10            5.8582     4.8656    -0.0271 C.ar    
  11 N11            7.0164     5.5017    -0.0339 N.ar    
  12 C12            8.1470     4.8057    -0.0471 C.ar    
  13 N13            8.1333     3.4793    -0.0537 N.ar    
  14 N14            7.0279     2.8192    -0.0424 N.ar    
  15 N15            9.3629     5.4768    -0.0547 N.am    
  16 C16           10.5830     4.6796    -0.0692 C.3     
  17 C17            9.3408     6.8101    -0.0536 C.2     
  18 C18           10.5777     7.6598    -0.1102 C.3     
  19 C19           11.8021     6.8233     0.2695 C.3     
  20 C20           11.7674     5.5225    -0.5438 C.3     
  21 C21           13.0787     7.6002    -0.0587 C.3     
  22 C22           11.7634     6.5029     1.7650 C.3     
  23 O23            8.2642     7.3662    -0.0046 O.2     
  24 H24           -0.9600     1.9055     0.0170 H       
  25 H25           -0.9274    -0.5541     0.0080 H       
  26 H26            1.2128    -1.7665    -0.0179 H       
  27 H27            3.3354    -0.5249    -0.0316 H       
  28 H28            1.1500     3.1686     0.0074 H       
  29 H29            4.9283     5.4147    -0.0167 H       
  30 H30           10.7838     4.3100     0.9364 H       
  31 H31           10.4516     3.8320    -0.7417 H       
  32 H32           10.7040     8.0486    -1.1206 H       
  33 H33           10.4776     8.4920     0.5867 H       
  34 H34           12.6933     4.9689    -0.3879 H       
  35 H35           11.6519     5.7559    -1.6022 H       
  36 H36           13.0904     8.5339     0.5034 H       
  37 H37           13.9482     7.0016     0.2128 H       
  38 H38           13.1068     7.8184    -1.1263 H       
  39 H39           10.8573     5.9416     1.9931 H       
  40 H40           12.6365     5.9073     2.0317 H       
  41 H41           11.7690     7.4315     2.3358 H       
@<TRIPOS>BOND
   1    1    2 ar
   2    1    6 ar
   3    1   24 1
   4    2    3 ar
   5    2   25 1
   6    3    4 ar
   7    3   26 1
   8    4    5 ar
   9    4   27 1
  10    5    6 ar
  11    5    7 1
  12    6   28 1
  13    7    8 3
  14    8    9 1
  15    9   10 ar
  16    9   14 ar
  17   10   11 ar
  18   10   29 1
  19   11   12 ar
  20   12   13 ar
  21   12   15 1
  22   13   14 ar
  23   15   16 1
  24   15   17 am
  25   16   20 1
  26   16   30 1
  27   16   31 1
  28   17   18 1
  29   17   23 2
  30   18   19 1
  31   18   32 1
  32   18   33 1
  33   19   20 1
  34   19   21 1
  35   19   22 1
  36   20   34 1
  37   20   35 1
  38   21   36 1
  39   21   37 1
  40   21   38 1
  41   22   39 1
  42   22   40 1
  43   22   41 1

#	End of record

