#	Name: ASD01883043
#	Creating user name:	WinNT
#	Creation time:	15. 06. 2019 19:45

#	Modifying user name:	WinNT
#	Modification time:	15. 06. 2019 19:45

#	Program:	/corina/corina34_cracker 3.40 0067  02.08.2006

@<TRIPOS>MOLECULE
ASD01883043
  48   50    0    0    0
SMALL
NO_CHARGES


@<TRIPOS>ATOM
   1 N1            -0.0674     1.2361     1.3207 N.am    
   2 C2            -0.0323    -0.0387     0.8903 C.2     
   3 C3            -1.2413    -0.7419     0.6646 C.2     
   4 C4            -2.4602    -0.0811     0.8991 C.2     
   5 C5            -2.4303     1.2535     1.3492 C.2     
   6 C6            -1.2448     1.8717     1.5519 C.2     
   7 O7             1.0387    -0.5875     0.6944 O.2     
   8 C8            -1.2224    -2.0984     0.2062 C.1     
   9 N9            -1.2074    -3.1746    -0.1574 N.1     
  10 C10            1.1908     1.9506     1.5503 C.3     
  11 C11            1.6162     2.6605     0.2634 C.3     
  12 C12           -5.3162    -1.8147    -0.8125 C.ar    
  13 C13           -3.7470    -0.7729     0.6775 C.ar    
  14 C14           -4.5982    -1.0305     1.7549 C.ar    
  15 C15           -6.1603    -2.0692     0.2619 C.ar    
  16 O16           -7.3425    -2.7047     0.0583 O.3     
  17 C17           -8.4768    -1.9604     0.0736 C.ar    
  18 C18           -9.7123    -2.5874    -0.0231 C.ar    
  19 C19          -10.8619    -1.8165    -0.0064 C.ar    
  20 C20          -10.7337    -0.4392     0.1071 C.ar    
  21 C21           -9.4728     0.1167     0.1992 C.ar    
  22 N22           -8.3955    -0.6447     0.1858 N.ar    
  23 C23           -4.1157    -1.1705    -0.6100 C.ar    
  24 C24            2.9302     3.4068     0.5032 C.3     
  25 C25           -5.7971    -1.6751     1.5442 C.ar    
  26 C26            3.3557     4.1167    -0.7836 C.3     
  27 C27          -12.2216    -2.4580    -0.1094 C.3     
  28 H28           -3.3538     1.7814     1.5361 H       
  29 H29           -1.2343     2.8950     1.8969 H       
  30 H30            1.0514     2.6865     2.3421 H       
  31 H31            1.9631     1.2406     1.8459 H       
  32 H32            1.7556     1.9246    -0.5285 H       
  33 H33            0.8439     3.3705    -0.0323 H       
  34 H34           -5.5999    -2.1264    -1.8069 H       
  35 H35           -4.3166    -0.7246     2.7517 H       
  36 H36           -9.7753    -3.6620    -0.1106 H       
  37 H37          -11.6105     0.1911     0.1229 H       
  38 H38           -9.3675     1.1879     0.2873 H       
  39 H39           -3.4601    -0.9735    -1.4453 H       
  40 H40            2.7908     4.1427     1.2951 H       
  41 H41            3.7026     2.6968     0.7989 H       
  42 H42           -6.4555    -1.8750     2.3766 H       
  43 H43            3.4951     3.3808    -1.5755 H       
  44 H44            2.5833     4.8267    -1.0793 H       
  45 H45            4.2918     4.6483    -0.6128 H       
  46 H46          -12.5888    -2.6937     0.8894 H       
  47 H47          -12.9119    -1.7699    -0.5974 H       
  48 H48          -12.1475    -3.3744    -0.6949 H       
@<TRIPOS>BOND
   1    1    2 am
   2    1   10 1
   3    1    6 1
   4    2    3 1
   5    2    7 2
   6    3    4 2
   7    3    8 1
   8    4    5 1
   9    4   13 1
  10    5    6 2
  11    5   28 1
  12    6   29 1
  13    8    9 3
  14   10   11 1
  15   10   30 1
  16   10   31 1
  17   11   24 1
  18   11   32 1
  19   11   33 1
  20   12   23 ar
  21   12   15 ar
  22   12   34 1
  23   13   14 ar
  24   13   23 ar
  25   14   25 ar
  26   14   35 1
  27   15   16 1
  28   15   25 ar
  29   16   17 1
  30   17   18 ar
  31   17   22 ar
  32   18   19 ar
  33   18   36 1
  34   19   20 ar
  35   19   27 1
  36   20   21 ar
  37   20   37 1
  38   21   22 ar
  39   21   38 1
  40   23   39 1
  41   24   26 1
  42   24   40 1
  43   24   41 1
  44   25   42 1
  45   26   43 1
  46   26   44 1
  47   26   45 1
  48   27   46 1
  49   27   47 1
  50   27   48 1

#	End of record

