#	Name: ASD01917893
#	Creating user name:	WinNT
#	Creation time:	15. 06. 2019 20:10

#	Modifying user name:	WinNT
#	Modification time:	15. 06. 2019 20:10

#	Program:	/corina/corina34_cracker 3.40 0067  02.08.2006

@<TRIPOS>MOLECULE
ASD01917893
  45   49    0    0    0
SMALL
NO_CHARGES


@<TRIPOS>ATOM
   1 C1            -0.0151     1.3285     0.0019 C.2     
   2 C2            -0.0052    -0.0177     0.0041 C.2     
   3 C3            -1.2750    -0.8548     0.0147 C.3     
   4 C4            -2.4422     0.0109     0.4952 C.3     
   5 N5            -2.4113     1.2981    -0.2154 N.am    
   6 C6            -1.2596     2.1860     0.0215 C.3     
   7 C7            -3.4039     1.6536    -1.0549 C.2     
   8 O8            -4.2934     0.8652    -1.3135 O.2     
   9 S9             1.6460     1.9038    -0.0198 S.3     
  10 C10            2.2121     0.2910    -0.0193 C.2     
  11 N11            1.2191    -0.5269    -0.0055 N.2     
  12 C12            3.6636    -0.1141    -0.0336 C.3     
  13 O13            4.1078    -0.2471    -1.3853 O.3     
  14 C14            5.4035    -0.6099    -1.5761 C.ar    
  15 C15            5.9015    -0.7576    -2.8625 C.ar    
  16 C16            7.2190    -1.1265    -3.0537 C.ar    
  17 C17            8.0410    -1.3485    -1.9644 C.ar    
  18 C18            7.5470    -1.2025    -0.6813 C.ar    
  19 C19            6.2319    -0.8277    -0.4848 C.ar    
  20 C20           -3.4116     2.9950    -1.6585 C.2     
  21 C21           -2.9940     4.1564    -1.0862 C.2     
  22 O22           -3.1554     5.1701    -1.9451 O.3     
  23 C23           -3.6793     4.7475    -3.1139 C.ar    
  24 C24           -3.8679     3.3605    -3.0130 C.ar    
  25 N25           -4.0074     5.3746    -4.2348 N.ar    
  26 C26           -4.5149     4.7312    -5.2651 C.ar    
  27 C27           -4.7327     3.3635    -5.2302 C.ar    
  28 C28           -4.3962     2.6543    -4.0901 C.ar    
  29 H29           -1.4808    -1.2175    -0.9924 H       
  30 H30           -1.1476    -1.7015     0.6891 H       
  31 H31           -3.3833    -0.4980     0.2867 H       
  32 H32           -2.3501     0.1842     1.5674 H       
  33 H33           -1.3605     2.6727     0.9916 H       
  34 H34           -1.2027     2.9371    -0.7664 H       
  35 H35            4.2583     0.6474     0.4710 H       
  36 H36            3.7800    -1.0670     0.4826 H       
  37 H37            5.2597    -0.5846    -3.7136 H       
  38 H38            7.6070    -1.2419    -4.0550 H       
  39 H39            9.0707    -1.6369    -2.1160 H       
  40 H40            8.1909    -1.3772     0.1679 H       
  41 H41            5.8465    -0.7137     0.5176 H       
  42 H42           -2.5927     4.2470    -0.0877 H       
  43 H43           -4.7677     5.2827    -6.1586 H       
  44 H44           -5.1505     2.8549    -6.0864 H       
  45 H45           -4.5534     1.5874    -4.0321 H       
@<TRIPOS>BOND
   1    1    2 2
   2    1    9 1
   3    1    6 1
   4    2    3 1
   5    2   11 1
   6    3    4 1
   7    3   29 1
   8    3   30 1
   9    4    5 1
  10    4   31 1
  11    4   32 1
  12    5    6 1
  13    5    7 am
  14    6   33 1
  15    6   34 1
  16    7    8 2
  17    7   20 1
  18    9   10 1
  19   10   11 2
  20   10   12 1
  21   12   13 1
  22   12   35 1
  23   12   36 1
  24   13   14 1
  25   14   15 ar
  26   14   19 ar
  27   15   16 ar
  28   15   37 1
  29   16   17 ar
  30   16   38 1
  31   17   18 ar
  32   17   39 1
  33   18   19 ar
  34   18   40 1
  35   19   41 1
  36   20   21 2
  37   20   24 1
  38   21   22 1
  39   21   42 1
  40   22   23 1
  41   23   25 ar
  42   23   24 ar
  43   24   28 ar
  44   25   26 ar
  45   26   27 ar
  46   26   43 1
  47   27   28 ar
  48   27   44 1
  49   28   45 1

#	End of record

