#	Name: ASD03330881
#	Creating user name:	WinNT
#	Creation time:	15. 06. 2019 20:38

#	Modifying user name:	WinNT
#	Modification time:	15. 06. 2019 20:38

#	Program:	/corina/corina34_cracker 3.40 0067  02.08.2006

@<TRIPOS>MOLECULE
ASD03330881
  72   75    0    0    0
SMALL
NO_CHARGES


@<TRIPOS>ATOM
   1 N1            -0.8374     1.7331    -0.3872 N.pl3   
   2 C2            -0.6765     0.4137    -0.0992 C.2     
   3 C3             0.6239    -0.2523     0.2673 C.3     
   4 N4             1.3077     0.5549     1.2898 N.3     
   5 C5             2.1690     1.5680     0.6771 C.3     
   6 C6             1.5675     2.0782    -0.6293 C.3     
   7 C7             0.2190     2.7484    -0.3523 C.3     
   8 C8            -2.1522     1.9263    -0.6973 C.2     
   9 N9            -2.7812     0.7794    -0.5882 N.2     
  10 C10           -1.8986    -0.1745    -0.2176 C.2     
  11 C11           -2.2042    -1.5970     0.0158 C.2     
  12 O12           -1.3192    -2.3626     0.3472 O.2     
  13 N13           -3.4643    -2.0496    -0.1380 N.am    
  14 C14           -2.7659     3.2130    -1.0902 C.ar    
  15 C15           -3.6157     3.2753    -2.1979 C.ar    
  16 C16           -4.1869     4.4801    -2.5602 C.ar    
  17 C17           -3.9181     5.6246    -1.8282 C.ar    
  18 C18           -3.0744     5.5682    -0.7275 C.ar    
  19 C19           -2.5032     4.3681    -0.3529 C.ar    
  20 F20           -2.8157     6.6886    -0.0183 F       
  21 F21           -4.4787     6.8002    -2.1869 F       
  22 F22           -3.8780     2.1597    -2.9133 F       
  23 C23            2.0712    -0.2983     2.2102 C.3     
  24 C24           -4.9950    -3.8495    -0.6914 C.2     
  25 C25           -3.7681    -3.4639     0.0940 C.3     
  26 C26           -4.0242    -3.6925     1.5850 C.3     
  27 C27           -4.4345    -5.1485     1.8146 C.3     
  28 O28           -5.8397    -3.0168    -0.9444 O.2     
  29 N29           -5.1538    -5.1199    -1.1127 N.am    
  30 C30           -6.3905    -5.5426    -1.7872 C.3     
  31 C31           -6.0151    -6.2508    -3.0932 C.3     
  32 N32           -5.0643    -7.3326    -2.8041 N.3     
  33 C33           -3.8097    -6.8057    -2.2506 C.3     
  34 C34           -4.0923    -6.1188    -0.9155 C.3     
  35 C35           -4.8112    -8.1451    -4.0015 C.3     
  36 C36           -2.7481    -3.3918     2.3737 C.3     
  37 C37           -5.1462    -2.7659     2.0577 C.3     
  38 H38            0.4245    -1.2483     0.6627 H       
  39 H39            1.2555    -0.3303    -0.6177 H       
  40 H40            2.2863     2.4033     1.3675 H       
  41 H41            3.1471     1.1316     0.4747 H       
  42 H42            2.2455     2.8016    -1.0822 H       
  43 H43            1.4227     1.2414    -1.3127 H       
  44 H44            0.0241     3.5034    -1.1139 H       
  45 H45            0.2407     3.2182     0.6310 H       
  46 H46           -4.1701    -1.4390    -0.4024 H       
  47 H47           -4.8438     4.5295    -3.4161 H       
  48 H48           -1.8504     4.3245     0.5064 H       
  49 H49            2.7712    -0.9106     1.6419 H       
  50 H50            2.6226     0.3271     2.9124 H       
  51 H51            1.3863    -0.9443     2.7594 H       
  52 H52           -2.9242    -4.0742    -0.2275 H       
  53 H53           -3.6330    -5.8085     1.4828 H       
  54 H54           -4.6223    -5.3100     2.8760 H       
  55 H55           -5.3406    -5.3643     1.2483 H       
  56 H56           -6.9422    -6.2285    -1.1443 H       
  57 H57           -7.0043    -4.6692    -2.0076 H       
  58 H58           -6.9118    -6.6675    -3.5518 H       
  59 H59           -5.5558    -5.5357    -3.7757 H       
  60 H60           -3.1071    -7.6249    -2.0981 H       
  61 H61           -3.3812    -6.0829    -2.9448 H       
  62 H62           -3.1874    -5.6261    -0.5599 H       
  63 H63           -4.4188    -6.8611    -0.1872 H       
  64 H64           -4.3948    -7.5145    -4.7871 H       
  65 H65           -4.1042    -8.9385    -3.7595 H       
  66 H66           -5.7469    -8.5851    -4.3465 H       
  67 H67           -2.4558    -2.3546     2.2101 H       
  68 H68           -2.9306    -3.5547     3.4359 H       
  69 H69           -1.9488    -4.0520     2.0369 H       
  70 H70           -6.0553    -2.9801     1.4958 H       
  71 H71           -5.3287    -2.9288     3.1199 H       
  72 H72           -4.8539    -1.7286     1.8941 H       
@<TRIPOS>BOND
   1    1    2 1
   2    1    7 1
   3    1    8 1
   4    2    3 1
   5    2   10 2
   6    3    4 1
   7    3   38 1
   8    3   39 1
   9    4    5 1
  10    4   23 1
  11    5    6 1
  12    5   40 1
  13    5   41 1
  14    6    7 1
  15    6   42 1
  16    6   43 1
  17    7   44 1
  18    7   45 1
  19    8    9 2
  20    8   14 1
  21    9   10 1
  22   10   11 1
  23   11   12 2
  24   11   13 am
  25   13   25 1
  26   13   46 1
  27   14   15 ar
  28   14   19 ar
  29   15   16 ar
  30   15   22 1
  31   16   17 ar
  32   16   47 1
  33   17   18 ar
  34   17   21 1
  35   18   19 ar
  36   18   20 1
  37   19   48 1
  38   23   49 1
  39   23   50 1
  40   23   51 1
  41   24   28 2
  42   24   29 am
  43   24   25 1
  44   25   26 1
  45   25   52 1
  46   26   27 1
  47   26   36 1
  48   26   37 1
  49   27   53 1
  50   27   54 1
  51   27   55 1
  52   29   30 1
  53   29   34 1
  54   30   31 1
  55   30   56 1
  56   30   57 1
  57   31   32 1
  58   31   58 1
  59   31   59 1
  60   32   33 1
  61   32   35 1
  62   33   34 1
  63   33   60 1
  64   33   61 1
  65   34   62 1
  66   34   63 1
  67   35   64 1
  68   35   65 1
  69   35   66 1
  70   36   67 1
  71   36   68 1
  72   36   69 1
  73   37   70 1
  74   37   71 1
  75   37   72 1

#	End of record

