#	Name: ASD05250005
#	Creating user name:	WinNT
#	Creation time:	15. 06. 2019 20:57

#	Modifying user name:	WinNT
#	Modification time:	15. 06. 2019 20:57

#	Program:	/corina/corina34_cracker 3.40 0067  02.08.2006

@<TRIPOS>MOLECULE
ASD05250005
  45   48    0    0    0
SMALL
NO_CHARGES


@<TRIPOS>ATOM
   1 C1             0.7173     0.9493    -3.3217 C.ar    
   2 C2             0.6544    -0.3873    -2.9645 C.ar    
   3 N3             1.6443    -0.9712    -2.3229 N.ar    
   4 C4             2.7461    -0.3041    -1.9902 C.ar    
   5 C5             2.8749     1.0557    -2.3227 C.ar    
   6 C6             1.8434     1.6899    -2.9987 C.ar    
   7 N7             3.8874    -0.6525    -1.3446 N.2     
   8 C8             4.6712     0.3958    -1.2742 C.2     
   9 O9             4.0806     1.4531    -1.8623 O.3     
  10 C10            6.0049     0.4144    -0.6430 C.ar    
  11 C11            6.8013     1.5583    -0.7181 C.ar    
  12 C12            8.0468     1.5695    -0.1262 C.ar    
  13 C13            8.5127     0.4505     0.5433 C.ar    
  14 C14            7.7358    -0.6887     0.6253 C.ar    
  15 C15            6.4775    -0.7156     0.0411 C.ar    
  16 N16            5.6918    -1.8640     0.1231 N.am    
  17 C17            6.2716    -3.0804     0.0982 C.2     
  18 C18            5.4544    -4.2916     0.3053 C.ar    
  19 O19            7.4679    -3.1798    -0.0948 O.2     
  20 C20            4.0799    -4.1792     0.5272 C.ar    
  21 C21            3.3180    -5.3115     0.7199 C.ar    
  22 C22            3.9134    -6.5650     0.6946 C.ar    
  23 C23            5.2851    -6.6845     0.4740 C.ar    
  24 C24            6.0532    -5.5544     0.2740 C.ar    
  25 O25            3.1585    -7.6775     0.8854 O.3     
  26 C26            1.7602    -7.4827     1.1064 C.3     
  27 C27            7.2749    -7.9620     0.2192 C.3     
  28 O28            5.8655    -7.9142     0.4503 O.3     
  29 H29           -0.1032     1.4099    -3.8519 H       
  30 H30           -0.2245    -0.9618    -3.2172 H       
  31 H31            1.9158     2.7336    -3.2665 H       
  32 H32            6.4426     2.4335    -1.2395 H       
  33 H33            8.6620     2.4551    -0.1855 H       
  34 H34            9.4894     0.4684     1.0038 H       
  35 H35            8.1062    -1.5576     1.1489 H       
  36 H36            4.7277    -1.7877     0.1981 H       
  37 H37            3.6142    -3.2050     0.5481 H       
  38 H38            2.2554    -5.2231     0.8913 H       
  39 H39            7.1157    -5.6455     0.1028 H       
  40 H40            1.2758    -8.4494     1.2438 H       
  41 H41            1.6148    -6.8735     1.9985 H       
  42 H42            1.3234    -6.9765     0.2456 H       
  43 H43            7.7908    -7.4098     1.0047 H       
  44 H44            7.6090    -8.9995     0.2250 H       
  45 H45            7.4999    -7.5132    -0.7482 H       
@<TRIPOS>BOND
   1    1    2 ar
   2    1    6 ar
   3    1   29 1
   4    2    3 ar
   5    2   30 1
   6    3    4 ar
   7    4    5 ar
   8    4    7 1
   9    5    6 ar
  10    5    9 1
  11    6   31 1
  12    7    8 2
  13    8    9 1
  14    8   10 1
  15   10   11 ar
  16   10   15 ar
  17   11   12 ar
  18   11   32 1
  19   12   13 ar
  20   12   33 1
  21   13   14 ar
  22   13   34 1
  23   14   15 ar
  24   14   35 1
  25   15   16 1
  26   16   17 am
  27   16   36 1
  28   17   18 1
  29   17   19 2
  30   18   20 ar
  31   18   24 ar
  32   20   21 ar
  33   20   37 1
  34   21   22 ar
  35   21   38 1
  36   22   23 ar
  37   22   25 1
  38   23   24 ar
  39   23   28 1
  40   24   39 1
  41   25   26 1
  42   26   40 1
  43   26   41 1
  44   26   42 1
  45   27   28 1
  46   27   43 1
  47   27   44 1
  48   27   45 1

#	End of record

