#	Name: ASD05790079
#	Creating user name:	WinNT
#	Creation time:	15. 06. 2019 21:03

#	Modifying user name:	WinNT
#	Modification time:	15. 06. 2019 21:03

#	Program:	/corina/corina34_cracker 3.40 0067  02.08.2006

@<TRIPOS>MOLECULE
ASD05790079
  47   49    0    0    0
SMALL
NO_CHARGES


@<TRIPOS>ATOM
   1 C1            -0.0066     1.3672    -0.2075 C.ar    
   2 C2             0.0067    -0.0115     0.0209 C.ar    
   3 C3             1.2208    -0.6696     0.2354 C.ar    
   4 C4             2.3994     0.0417     0.2211 C.ar    
   5 C5             2.3827     1.4144    -0.0063 C.ar    
   6 C6             1.1755     2.0726    -0.2207 C.ar    
   7 N7             3.5774     2.1316    -0.0193 N.am    
   8 C8             4.6939     1.5718    -0.5258 C.2     
   9 O9             4.6800     0.4131    -0.8932 O.2     
  10 C10            5.9346     2.3663    -0.6345 C.ar    
  11 C11            5.9542     3.6976    -0.2134 C.ar    
  12 C12            7.0954     1.7877    -1.1537 C.ar    
  13 C13            8.2518     2.5371    -1.2517 C.ar    
  14 C14            8.2613     3.8562    -0.8373 C.ar    
  15 C15            7.1157     4.4335    -0.3172 C.ar    
  16 Cl16           7.0848     0.1314    -1.6737 Cl      
  17 C17           -1.2588    -0.7708     0.0361 C.2     
  18 O18           -2.3144    -0.1969    -0.1502 O.2     
  19 N19           -1.2443    -2.1003     0.2566 N.am    
  20 C20           -2.5005    -2.8541     0.2717 C.3     
  21 C21           -2.2058    -4.3311     0.5409 C.3     
  22 O22           -1.6618    -4.4766     1.8542 O.3     
  23 C23           -3.4821    -5.1254     0.4350 C.ar    
  24 C24           -3.7619    -5.8332    -0.7190 C.ar    
  25 C25           -4.3703    -5.1507     1.4939 C.ar    
  26 C26           -5.5410    -5.8793     1.3967 C.ar    
  27 C27           -5.8238    -6.5822     0.2405 C.ar    
  28 C28           -4.9327    -6.5617    -0.8162 C.ar    
  29 H29           -0.9428     1.8779    -0.3781 H       
  30 H30            1.2344    -1.7348     0.4126 H       
  31 H31            3.3380    -0.4663     0.3868 H       
  32 H32            1.1659     3.1380    -0.3972 H       
  33 H33            3.6055     3.0336     0.3362 H       
  34 H34            5.0614     4.1501     0.1924 H       
  35 H35            9.1504     2.0916    -1.6524 H       
  36 H36            9.1680     4.4377    -0.9161 H       
  37 H37            7.1305     5.4645     0.0041 H       
  38 H38           -0.4022    -2.5582     0.4053 H       
  39 H39           -3.1488    -2.4641     1.0564 H       
  40 H40           -2.9967    -2.7526    -0.6934 H       
  41 H41           -1.4877    -4.6978    -0.1925 H       
  42 H42           -2.2482    -4.1696     2.5591 H       
  43 H43           -3.0661    -5.8167    -1.5448 H       
  44 H44           -4.1494    -4.6016     2.3973 H       
  45 H45           -6.2346    -5.8997     2.2243 H       
  46 H46           -6.7382    -7.1517     0.1647 H       
  47 H47           -5.1536    -7.1109    -1.7195 H       
@<TRIPOS>BOND
   1    1    2 ar
   2    1    6 ar
   3    1   29 1
   4    2    3 ar
   5    2   17 1
   6    3    4 ar
   7    3   30 1
   8    4    5 ar
   9    4   31 1
  10    5    6 ar
  11    5    7 1
  12    6   32 1
  13    7    8 am
  14    7   33 1
  15    8    9 2
  16    8   10 1
  17   10   11 ar
  18   10   12 ar
  19   11   15 ar
  20   11   34 1
  21   12   13 ar
  22   12   16 1
  23   13   14 ar
  24   13   35 1
  25   14   15 ar
  26   14   36 1
  27   15   37 1
  28   17   18 2
  29   17   19 am
  30   19   20 1
  31   19   38 1
  32   20   21 1
  33   20   39 1
  34   20   40 1
  35   21   22 1
  36   21   23 1
  37   21   41 1
  38   22   42 1
  39   23   24 ar
  40   23   25 ar
  41   24   28 ar
  42   24   43 1
  43   25   26 ar
  44   25   44 1
  45   26   27 ar
  46   26   45 1
  47   27   28 ar
  48   27   46 1
  49   28   47 1

#	End of record

