#	Name: ASD01411289
#	Creating user name:	WinNT
#	Creation time:	15. 06. 2019 19:19

#	Modifying user name:	WinNT
#	Modification time:	15. 06. 2019 19:19

#	Program:	/corina/corina34_cracker 3.40 0067  02.08.2006

@<TRIPOS>MOLECULE
ASD01411289
 103  109    0    0    0
SMALL
NO_CHARGES


@<TRIPOS>ATOM
   1 C1             0.0647     2.0268     0.5858 C.ar    
   2 C2             0.0048     0.6201     0.5423 C.ar    
   3 C3            -1.2409    -0.0219     0.6058 C.ar    
   4 C4            -2.3803     0.7089     0.7131 C.ar    
   5 C5            -2.3362     2.1212     0.7593 C.ar    
   6 C6            -1.1077     2.7633     0.6814 C.ar    
   7 N7             1.3972     2.3856     0.5228 N.pl3   
   8 C8             2.1543     1.2438     0.4209 C.2     
   9 C9             1.3362     0.1579     0.4330 C.2     
  10 C10            1.9049     3.7587     0.5578 C.3     
  11 C11            1.3268     4.4936     1.7405 C.2     
  12 N12            1.4348     5.8468     1.7878 N.am    
  13 O13            0.7794     3.8864     2.6359 O.2     
  14 C14            0.8084     6.5479     2.9221 C.3     
  15 C15           -0.5191     7.1547     2.4586 C.3     
  16 C16           -1.5631     6.9495     3.5235 C.2     
  17 C17           -3.6128     2.8316     0.8877 C.2     
  18 O18           -4.6295     2.1422     0.8294 O.2     
  19 N19           -3.7978     4.1473     1.0832 N.am    
  20 C20           -2.7881     6.6130     3.2128 C.2     
  21 C21           -3.2002     6.4169     1.7777 C.3     
  22 C22           -2.6724     5.0709     1.2723 C.3     
  23 C23            3.6275     1.1809     0.3101 C.ar    
  24 C24            4.3011     2.0388    -0.5614 C.ar    
  25 C25            1.7770    -1.2807     0.3452 C.3     
  26 C26            1.3230    -2.0307     1.5991 C.3     
  27 C27            1.7705    -3.4910     1.5100 C.3     
  28 C28            1.1468    -4.1410     0.2732 C.3     
  29 C29            1.6008    -3.3910    -0.9807 C.3     
  30 C30            1.1533    -1.9306    -0.8916 C.3     
  31 C31            5.6744     1.9775    -0.6614 C.ar    
  32 C32            6.3881     1.0636     0.1029 C.ar    
  33 C33            5.7217     0.2084     0.9711 C.ar    
  34 C34            4.3490     0.2675     1.0810 C.ar    
  35 O35            7.7415     1.0055     0.0009 O.3     
  36 C36            8.4128     0.0425     0.8156 C.3     
  37 C37            9.8974     0.1237     0.5695 C.ar    
  38 C38           10.7706    -0.6484     1.3247 C.ar    
  39 C39           12.1385    -0.5704     1.0945 C.ar    
  40 C40           12.6254     0.2739     0.1164 C.ar    
  41 C41           11.7530     1.0414    -0.6338 C.ar    
  42 C42           10.3907     0.9620    -0.4112 C.ar    
  43 N43           10.2747    -1.5011     2.3136 N.3     
  44 C44           10.7262    -1.0800     3.6465 C.3     
  45 C45           10.0194    -1.9247     4.7120 C.3     
  46 N46           10.2373    -3.3458     4.4018 N.am    
  47 C47            9.9365    -3.8150     3.0406 C.3     
  48 C48           10.6465    -2.8958     2.0410 C.3     
  49 S49           10.8065    -4.3899     5.5543 S.o2    
  50 C50            9.3136    -5.0346     6.3580 C.3     
  51 O51           11.4542    -5.4132     4.8109 O.2     
  52 O52           11.5358    -3.5607     6.4487 O.2     
  53 N53           12.2785     1.9453    -1.6814 N.pl3   
  54 O54           13.4780     2.0126    -1.8820 O.2     
  55 O55           11.5115     2.6218    -2.3428 O.2     
  56 H56           -1.2938    -1.1004     0.5666 H       
  57 H57           -3.3356     0.2074     0.7629 H       
  58 H58           -1.0386     3.8393     0.6714 H       
  59 H59            2.9901     3.7620     0.6329 H       
  60 H60            1.6082     4.2728    -0.3591 H       
  61 H61            1.9113     6.3349     1.0972 H       
  62 H62            0.6262     5.8460     3.7346 H       
  63 H63            1.4697     7.3424     3.2682 H       
  64 H64           -0.3844     8.2231     2.2821 H       
  65 H65           -0.8309     6.6723     1.5332 H       
  66 H66           -1.2973     7.0848     4.5653 H       
  67 H67           -4.7136     4.4996     1.1009 H       
  68 H68           -3.5184     6.4739     4.0008 H       
  69 H69           -4.2885     6.4274     1.7070 H       
  70 H70           -2.7913     7.2192     1.1647 H       
  71 H71           -1.9790     4.6629     2.0081 H       
  72 H72           -2.1600     5.2256     0.3216 H       
  73 H73            3.7468     2.7493    -1.1567 H       
  74 H74            2.8635    -1.3238     0.2694 H       
  75 H75            1.7673    -1.5677     2.4802 H       
  76 H76            0.2365    -1.9875     1.6749 H       
  77 H77            2.8570    -3.5342     1.4342 H       
  78 H78            1.4471    -4.0253     2.4033 H       
  79 H79            1.4656    -5.1814     0.2097 H       
  80 H80            0.0603    -4.0978     0.3490 H       
  81 H81            2.6873    -3.4341    -1.0565 H       
  82 H82            1.1565    -3.8540    -1.8618 H       
  83 H83            0.0668    -1.8875    -0.8158 H       
  84 H84            1.4767    -1.3963    -1.7849 H       
  85 H85            6.1962     2.6408    -1.3354 H       
  86 H86            6.2802    -0.5009     1.5638 H       
  87 H87            3.8316    -0.3975     1.7566 H       
  88 H88            8.2069     0.2484     1.8660 H       
  89 H89            8.0571    -0.9568     0.5648 H       
  90 H90           12.8203    -1.1692     1.6802 H       
  91 H91           13.6887     0.3353    -0.0628 H       
  92 H92            9.7122     1.5624    -0.9990 H       
  93 H93           11.8041    -1.2208     3.7268 H       
  94 H94           10.4841    -0.0279     3.7970 H       
  95 H95           10.4336    -1.6967     5.6941 H       
  96 H96            8.9514    -1.7074     4.7025 H       
  97 H97           10.2959    -4.8367     2.9177 H       
  98 H98            8.8605    -3.7794     2.8704 H       
  99 H99           10.3468    -3.1607     1.0270 H       
 100 H100          11.7255    -3.0113     2.1436 H       
 101 H101           8.6938    -5.5427     5.6192 H       
 102 H102           9.5973    -5.7387     7.1402 H       
 103 H103           8.7526    -4.2099     6.7975 H       
@<TRIPOS>BOND
   1    1    2 ar
   2    1    7 1
   3    1    6 ar
   4    2    3 ar
   5    2    9 1
   6    3    4 ar
   7    3   56 1
   8    4    5 ar
   9    4   57 1
  10    5    6 ar
  11    5   17 1
  12    6   58 1
  13    7    8 1
  14    7   10 1
  15    8    9 2
  16    8   23 1
  17    9   25 1
  18   10   11 1
  19   10   59 1
  20   10   60 1
  21   11   12 am
  22   11   13 2
  23   12   14 1
  24   12   61 1
  25   14   15 1
  26   14   62 1
  27   14   63 1
  28   15   16 1
  29   15   64 1
  30   15   65 1
  31   16   20 2
  32   16   66 1
  33   17   18 2
  34   17   19 am
  35   19   22 1
  36   19   67 1
  37   20   21 1
  38   20   68 1
  39   21   22 1
  40   21   69 1
  41   21   70 1
  42   22   71 1
  43   22   72 1
  44   23   24 ar
  45   23   34 ar
  46   24   31 ar
  47   24   73 1
  48   25   26 1
  49   25   30 1
  50   25   74 1
  51   26   27 1
  52   26   75 1
  53   26   76 1
  54   27   28 1
  55   27   77 1
  56   27   78 1
  57   28   29 1
  58   28   79 1
  59   28   80 1
  60   29   30 1
  61   29   81 1
  62   29   82 1
  63   30   83 1
  64   30   84 1
  65   31   32 ar
  66   31   85 1
  67   32   33 ar
  68   32   35 1
  69   33   34 ar
  70   33   86 1
  71   34   87 1
  72   35   36 1
  73   36   37 1
  74   36   88 1
  75   36   89 1
  76   37   38 ar
  77   37   42 ar
  78   38   39 ar
  79   38   43 1
  80   39   40 ar
  81   39   90 1
  82   40   41 ar
  83   40   91 1
  84   41   42 ar
  85   41   53 1
  86   42   92 1
  87   43   44 1
  88   43   48 1
  89   44   45 1
  90   44   93 1
  91   44   94 1
  92   45   46 1
  93   45   95 1
  94   45   96 1
  95   46   47 1
  96   46   49 am
  97   47   48 1
  98   47   97 1
  99   47   98 1
 100   48   99 1
 101   48  100 1
 102   49   50 1
 103   49   51 2
 104   49   52 2
 105   50  101 1
 106   50  102 1
 107   50  103 1
 108   53   54 2
 109   53   55 2

#	End of record

