#	Name: ASD03082422
#	Creating user name:	WinNT
#	Creation time:	15. 06. 2019 20:27

#	Modifying user name:	WinNT
#	Modification time:	15. 06. 2019 20:27

#	Program:	/corina/corina34_cracker 3.40 0067  02.08.2006

@<TRIPOS>MOLECULE
ASD03082422
  46   49    0    0    0
SMALL
NO_CHARGES


@<TRIPOS>ATOM
   1 C1             1.9714     3.8923    -0.7751 C.ar    
   2 C2             1.1038     4.6610    -1.5402 C.ar    
   3 C3             1.2600     6.0328    -1.5957 C.ar    
   4 C4             2.2818     6.6455    -0.8885 C.ar    
   5 C5             3.1533     5.8776    -0.1200 C.ar    
   6 N6             1.8127     2.5031    -0.7204 N.pl3   
   7 C7             2.9199     1.6814    -0.4849 C.2     
   8 C8             2.8870     0.2898    -0.2905 C.2     
   9 N9             4.1696     2.0759    -0.4130 N.2     
  10 N10            4.9696     0.9530    -0.1652 N.pl3   
  11 C11            4.1559    -0.1328    -0.0944 C.2     
  12 C12            6.3601     0.9496    -0.0203 C.ar    
  13 C13            7.1396    -0.0329    -0.6275 C.ar    
  14 C14            7.0031     1.9322     0.7305 C.ar    
  15 C15            8.3770     1.8936     0.8493 C.ar    
  16 N16            9.0802     0.9430     0.2633 N.ar    
  17 C17            8.5091    -0.0012    -0.4601 C.ar    
  18 C18            9.0839     2.9507     1.6580 C.3     
  19 H19            9.1206    -0.7616    -0.9229 H       
  20 C20            2.9998     4.5020    -0.0691 C.ar    
  21 O21            2.6439     7.9581    -0.7776 O.3     
  22 C22            3.4886     8.0265     0.3865 C.3     
  23 O23            4.0607     6.7081     0.4718 O.3     
  24 F24            4.4907     8.9869     0.2109 F       
  25 F25            2.7305     8.3083     1.5280 F       
  26 C26            4.5903    -1.5536     0.1579 C.3     
  27 C27            4.6762    -2.3046    -1.1723 C.3     
  28 C28            5.2447    -3.7045    -0.9319 C.3     
  29 O29            5.3250    -4.4059    -2.1744 O.3     
  30 H30            0.3065     4.1860    -2.0925 H       
  31 H31            0.5846     6.6284    -2.1919 H       
  32 H32            0.9349     2.1099    -0.8457 H       
  33 H33            2.0039    -0.3319    -0.2963 H       
  34 H34            6.6784    -0.8088    -1.2206 H       
  35 H35            6.4336     2.7132     1.2123 H       
  36 H36            9.1652     2.6217     2.6939 H       
  37 H37           10.0810     3.1144     1.2494 H       
  38 H38            8.5166     3.8805     1.6155 H       
  39 H39            3.6743     3.9049     0.5265 H       
  40 H40            5.5681    -1.5546     0.6395 H       
  41 H41            3.8654    -2.0454     0.8066 H       
  42 H42            3.6805    -2.3867    -1.6082 H       
  43 H43            5.3280    -1.7601    -1.8555 H       
  44 H44            6.2404    -3.6224    -0.4961 H       
  45 H45            4.5929    -4.2490    -0.2487 H       
  46 H46            5.6777    -5.3030    -2.0975 H       
@<TRIPOS>BOND
   1    1    2 ar
   2    1    6 1
   3    1   20 ar
   4    2    3 ar
   5    2   30 1
   6    3    4 ar
   7    3   31 1
   8    4    5 ar
   9    4   21 1
  10    5   20 ar
  11    5   23 1
  12    6    7 1
  13    6   32 1
  14    7    8 1
  15    7    9 2
  16    8   11 2
  17    8   33 1
  18    9   10 1
  19   10   11 1
  20   10   12 1
  21   11   26 1
  22   12   13 ar
  23   12   14 ar
  24   13   17 ar
  25   13   34 1
  26   14   15 ar
  27   14   35 1
  28   15   16 ar
  29   15   18 1
  30   16   17 ar
  31   17   19 1
  32   18   36 1
  33   18   37 1
  34   18   38 1
  35   20   39 1
  36   21   22 1
  37   22   23 1
  38   22   24 1
  39   22   25 1
  40   26   27 1
  41   26   40 1
  42   26   41 1
  43   27   28 1
  44   27   42 1
  45   27   43 1
  46   28   29 1
  47   28   44 1
  48   28   45 1
  49   29   46 1

#	End of record

