#	Name: ASD01001080
#	Creating user name:	WinNT
#	Creation time:	15. 06. 2019 18:55

#	Modifying user name:	WinNT
#	Modification time:	15. 06. 2019 18:55

#	Program:	/corina/corina34_cracker 3.40 0067  02.08.2006

@<TRIPOS>MOLECULE
ASD01001080
  36   38    0    0    0
SMALL
NO_CHARGES


@<TRIPOS>ATOM
   1 C1            -0.0167     1.3769     0.0096 C.ar    
   2 C2             0.0021    -0.0041     0.0020 C.ar    
   3 C3             1.1854     2.0884     0.0020 C.ar    
   4 C4             1.2099    -0.6841    -0.0127 C.ar    
   5 C5             2.4003     1.3955    -0.0134 C.ar    
   6 C6             1.1735     3.5627     0.0095 C.2     
   7 C7             2.4037     0.0135    -0.0199 C.ar    
   8 N8             2.2196     4.3145     0.0031 N.2     
   9 N9             1.9398     5.6795     0.0119 N.am    
  10 C10            0.4802     5.8659     0.0264 C.3     
  11 C11           -0.0683     4.4252     0.0194 C.3     
  12 C12            2.8563     6.6676     0.0077 C.2     
  13 C13            0.0511     6.5955     1.2733 C.ar    
  14 C14           -0.9579     7.5382     1.2098 C.ar    
  15 C15           -1.3515     8.2075     2.3535 C.ar    
  16 C16           -0.7363     7.9338     3.5607 C.ar    
  17 C17            0.2722     6.9904     3.6244 C.ar    
  18 C18            0.6627     6.3180     2.4815 C.ar    
  19 C19            4.3255     6.3326    -0.0082 C.3     
  20 O20            2.4986     7.8267     0.0167 O.2     
  21 F21           -1.1596    -0.6938     0.0094 F       
  22 F22            3.5677     2.0756    -0.0213 F       
  23 H23           -0.9585     1.9055     0.0170 H       
  24 H24            1.2185    -1.7641    -0.0182 H       
  25 H25            3.3410    -0.5229    -0.0307 H       
  26 H26            0.1530     6.4017    -0.8646 H       
  27 H27           -0.6692     4.2492    -0.8728 H       
  28 H28           -0.6532     4.2343     0.9192 H       
  29 H29           -1.4386     7.7520     0.2666 H       
  30 H30           -2.1393     8.9445     2.3037 H       
  31 H31           -1.0432     8.4572     4.4541 H       
  32 H32            0.7530     6.7768     4.5675 H       
  33 H33            1.4506     5.5810     2.5312 H       
  34 H34            4.6697     6.2568    -1.0396 H       
  35 H35            4.8826     7.1170     0.5040 H       
  36 H36            4.4868     5.3816     0.4995 H       
@<TRIPOS>BOND
   1    1    2 ar
   2    1    3 ar
   3    1   23 1
   4    2    4 ar
   5    2   21 1
   6    3    6 1
   7    3    5 ar
   8    4    7 ar
   9    4   24 1
  10    5   22 1
  11    5    7 ar
  12    6    8 2
  13    6   11 1
  14    7   25 1
  15    8    9 1
  16    9   10 1
  17    9   12 am
  18   10   11 1
  19   10   13 1
  20   10   26 1
  21   11   27 1
  22   11   28 1
  23   12   19 1
  24   12   20 2
  25   13   14 ar
  26   13   18 ar
  27   14   15 ar
  28   14   29 1
  29   15   16 ar
  30   15   30 1
  31   16   17 ar
  32   16   31 1
  33   17   18 ar
  34   17   32 1
  35   18   33 1
  36   19   34 1
  37   19   35 1
  38   19   36 1

#	End of record

