#	Name: ASD01410263
#	Creating user name:	WinNT
#	Creation time:	15. 06. 2019 19:17

#	Modifying user name:	WinNT
#	Modification time:	15. 06. 2019 19:17

#	Program:	/corina/corina34_cracker 3.40 0067  02.08.2006

@<TRIPOS>MOLECULE
ASD01410263
  27   28    0    0    0
SMALL
NO_CHARGES


@<TRIPOS>ATOM
   1 C1            -0.0165     1.3753     0.0329 C.ar    
   2 C2             0.0019    -0.0056     0.0280 C.ar    
   3 C3            -1.1844    -0.7223     0.0307 C.ar    
   4 C4            -2.3949    -0.0633     0.0383 C.ar    
   5 C5            -2.4277     1.3336     0.0437 C.ar    
   6 C6            -1.2262     2.0547     0.0468 C.ar    
   7 O7            -1.2458     3.4113     0.0520 O.3     
   8 I8             1.7845     2.4455     0.0281 I       
   9 C9            -3.7198     2.0451     0.0513 C.2     
  10 N10           -4.8732     1.3478     0.0530 N.am    
  11 C11           -7.2161     1.5453    -0.4974 C.ar    
  12 C12           -6.0955     2.0177     0.1729 C.ar    
  13 C13           -6.1902     3.1560     0.9630 C.ar    
  14 C14           -7.3990     3.8154     1.0799 C.ar    
  15 C15           -8.5151     3.3413     0.4103 C.ar    
  16 C16           -8.4224     2.2076    -0.3770 C.ar    
  17 I17           -1.1373    -2.8168     0.0226 I       
  18 Cl18         -10.0327     4.1708     0.5598 Cl      
  19 O19           -3.7444     3.2609     0.0560 O.2     
  20 Cl20          -7.5190     5.2384     2.0671 Cl      
  21 H21            0.9460    -0.5299     0.0218 H       
  22 H22           -3.3168    -0.6258     0.0396 H       
  23 H23           -1.2516     3.8011     0.9369 H       
  24 H24           -4.8557     0.3814    -0.0289 H       
  25 H25           -7.1437     0.6628    -1.1159 H       
  26 H26           -5.3202     3.5252     1.4856 H       
  27 H27           -9.2939     1.8402    -0.8984 H       
@<TRIPOS>BOND
   1    1    2 ar
   2    1    8 1
   3    1    6 ar
   4    2    3 ar
   5    2   21 1
   6    3    4 ar
   7    3   17 1
   8    4    5 ar
   9    4   22 1
  10    5    6 ar
  11    5    9 1
  12    6    7 1
  13    7   23 1
  14    9   10 am
  15    9   19 2
  16   10   12 1
  17   10   24 1
  18   11   12 ar
  19   11   16 ar
  20   11   25 1
  21   12   13 ar
  22   13   14 ar
  23   13   26 1
  24   14   15 ar
  25   14   20 1
  26   15   16 ar
  27   15   18 1
  28   16   27 1

#	End of record

