#	Name: ASD04480002
#	Creating user name:	WinNT
#	Creation time:	15. 06. 2019 20:49

#	Modifying user name:	WinNT
#	Modification time:	15. 06. 2019 20:49

#	Program:	/corina/corina34_cracker 3.40 0067  02.08.2006

@<TRIPOS>MOLECULE
ASD04480002
 287  292    0    0    0
SMALL
NO_CHARGES


@<TRIPOS>ATOM
   1 C1           -11.7749     2.2425    -9.0180 C.2     
   2 O2           -12.1620     1.2772    -8.3942 O.2     
   3 C3           -11.8789     2.2595   -10.5213 C.3     
   4 N4           -11.2567     3.3024    -8.3664 N.am    
   5 C5           -11.1612     3.2884    -6.9046 C.3     
   6 C6           -10.0580     4.2159    -6.4644 C.2     
   7 O7            -9.4149     4.8283    -7.2904 O.2     
   8 C8           -12.4887     3.7529    -6.3022 C.3     
   9 N9            -9.7860     4.3649    -5.1528 N.am    
  10 C10           -8.7136     5.2665    -4.7249 C.3     
  11 C11           -9.2485     6.6719    -4.6256 C.2     
  12 O12          -10.4111     6.8980    -4.8866 O.2     
  13 C13           -8.1892     4.8227    -3.3578 C.3     
  14 C14           -7.6119     3.4100    -3.4670 C.3     
  15 C15           -6.3979     3.4258    -4.3981 C.3     
  16 C16           -7.1848     2.9249    -2.0803 C.3     
  17 N17           -8.4349     7.6774    -4.2468 N.am    
  18 C18           -8.9550     9.0436    -4.1503 C.3     
  19 C19           -9.4896     9.2810    -2.7613 C.2     
  20 O20           -8.9177     8.8204    -1.7961 O.2     
  21 C21           -7.8299    10.0394    -4.4395 C.3     
  22 S22           -6.2663     9.1422    -4.6415 S.3     
  23 N23          -10.6217    10.0188    -2.6040 N.am    
  24 C24          -11.0932    10.2240    -1.2210 C.3     
  25 C25          -12.4815    10.8090    -1.2585 C.2     
  26 O26          -13.2227    10.5797    -2.1907 O.2     
  27 C27          -11.1224     8.8827    -0.4855 C.3     
  28 C28          -11.9360     7.8926    -1.2785 C.2     
  29 O29          -12.5039     8.2458    -2.2848 O.2     
  30 O30          -12.0297     6.6184    -0.8670 O.3     
  31 N31          -12.8901    11.6006    -0.2254 N.am    
  32 C32          -14.2666    12.1323    -0.3217 C.3     
  33 C33          -14.2864    13.5295     0.2430 C.2     
  34 O34          -13.2447    14.1175     0.4434 O.2     
  35 C35          -14.7025    12.1653    -1.7879 C.3     
  36 C36          -13.6747    12.9094    -2.6009 C.2     
  37 O37          -13.8905    13.1415    -3.9053 O.3     
  38 O38          -12.6565    13.2970    -2.0787 O.2     
  39 N39          -15.4621    14.1255     0.5259 N.am    
  40 C40          -15.6205    15.4855     1.0462 C.3     
  41 C41          -15.4231    16.4818    -0.0669 C.2     
  42 O42          -15.8306    16.2453    -1.1845 O.2     
  43 C43          -17.0401    15.6101     1.6107 C.3     
  44 C44          -17.7756    14.3218     1.2128 C.3     
  45 C45          -16.7851    13.5200     0.3581 C.3     
  46 N46          -14.7794    17.6539     0.2023 N.am    
  47 C47          -14.6217    18.5790    -0.9396 C.3     
  48 C48          -13.4077    19.4409    -0.7054 C.2     
  49 O49          -12.7944    19.3725     0.3386 O.2     
  50 C50          -14.4386    17.7753    -2.2286 C.3     
  51 C51          -13.2607    16.8124    -2.0662 C.3     
  52 C52          -12.9641    16.1387    -3.4075 C.3     
  53 N53          -11.7294    15.3577    -3.2992 N.pl3   
  54 C54          -11.1599    14.8124    -4.4255 C.2     
  55 N55          -11.6472    15.0903    -5.6020 N.2     
  56 N56          -10.0764    13.9739    -4.3108 N.pl3   
  57 N57          -13.0117    20.2973    -1.6867 N.am    
  58 C58          -11.8199    21.1228    -1.4109 C.3     
  59 C59          -11.2472    21.5990    -2.7210 C.2     
  60 O60          -11.8343    21.3889    -3.7612 O.2     
  61 C61          -12.2172    22.3280    -0.5563 C.3     
  62 C62          -13.3474    23.0932    -1.2477 C.3     
  63 C63          -12.6926    21.8459     0.8157 C.3     
  64 N64          -10.0599    22.2698    -2.7206 N.am    
  65 C65           -9.5603    22.6986    -4.0446 C.3     
  66 C66           -8.0800    22.4254    -4.1125 C.2     
  67 O67           -7.4055    22.4408    -3.1046 O.2     
  68 C68          -10.2784    21.9126    -5.1435 C.3     
  69 C69          -10.1234    20.4356    -4.8878 C.2     
  70 O70          -10.6176    19.5473    -5.7644 O.3     
  71 O71           -9.5543    20.0510    -3.8938 O.2     
  72 N72           -7.5098    22.1607    -5.3194 N.am    
  73 C73           -6.0563    21.9082    -5.3245 C.3     
  74 C74           -5.7363    20.9111    -6.4080 C.2     
  75 O75           -6.4835    20.7649    -7.3520 O.2     
  76 C76           -5.3102    23.2162    -5.5956 C.3     
  77 C77           -5.5472    24.1878    -4.4377 C.3     
  78 C78           -4.8011    25.4958    -4.7088 C.3     
  79 N79           -5.0279    26.4262    -3.6001 N.pl3   
  80 C80           -4.4533    27.6750    -3.6222 C.2     
  81 N81           -3.6659    28.0507    -4.6847 N.pl3   
  82 N82           -4.6552    28.5028    -2.6358 N.2     
  83 N83           -4.5913    20.1760    -6.3091 N.am    
  84 C84           -4.3409    19.2178    -7.4069 C.3     
  85 C85           -3.5595    18.0506    -6.8610 C.2     
  86 O86           -2.8670    18.1831    -5.8742 O.2     
  87 C87           -5.6745    18.7238    -7.9710 C.3     
  88 C88           -6.0421    19.5424    -9.1816 C.2     
  89 C89           -7.0342    19.2851   -10.0484 C.2     
  90 C90           -5.3884    20.7735    -9.6322 C.ar    
  91 C91           -6.0715    21.1731   -10.7952 C.ar    
  92 C92           -4.3190    21.5347    -9.1562 C.ar    
  93 N93           -7.0657    20.2475   -11.0205 N.pl3   
  94 C94           -5.6695    22.3278   -11.4589 C.ar    
  95 C95           -3.9412    22.6654    -9.8235 C.ar    
  96 C96           -4.6118    23.0638   -10.9720 C.ar    
  97 N97           -3.6403    16.8464    -7.4891 N.am    
  98 C98           -2.8566    15.7397    -6.9071 C.3     
  99 C99           -3.4810    14.4314    -7.3188 C.2     
 100 O100          -4.1260    14.3516    -8.3428 O.2     
 101 C101          -1.4172    15.8050    -7.4215 C.3     
 102 C102          -0.7605    17.0646    -6.9182 C.ar    
 103 C103          -0.0846    17.0560    -5.7120 C.ar    
 104 C104          -0.8302    18.2254    -7.6660 C.ar    
 105 C105           0.5182    18.2093    -5.2485 C.ar    
 106 C106          -0.2287    19.3813    -7.2071 C.ar    
 107 C107           0.4449    19.3768    -5.9942 C.ar    
 108 O108           1.0366    20.5128    -5.5402 O.3     
 109 N109          -3.3084    13.3383    -6.5214 N.am    
 110 C110          -3.9473    12.0897    -6.9896 C.3     
 111 C111          -2.8955    11.1568    -7.5322 C.2     
 112 O112          -1.7334    11.3050    -7.2187 O.2     
 113 C113          -4.6594    11.4282    -5.8081 C.3     
 114 S114          -5.5050     9.9271    -6.3759 S.3     
 115 N115          -3.2464    10.1577    -8.3660 N.am    
 116 C116          -2.2240     9.2507    -8.8935 C.3     
 117 C117          -2.8598     7.9334    -9.2561 C.2     
 118 O118          -4.0498     7.7684    -9.0901 O.2     
 119 C119          -1.5871     9.8696   -10.1394 C.3     
 120 C120          -0.8353    11.1435    -9.7485 C.3     
 121 C121          -0.2079    11.7531   -10.9757 C.2     
 122 N122           0.5091    12.8896   -10.8721 N.am    
 123 O123          -0.3483    11.2210   -12.0564 O.2     
 124 N124          -2.1060     6.9386    -9.7647 N.am    
 125 C125          -2.7241     5.6580   -10.1171 C.3     
 126 C126          -1.8964     4.9750   -11.1752 C.2     
 127 O127          -0.8894     5.5057   -11.5936 O.2     
 128 C128          -2.7984     4.7684    -8.8745 C.3     
 129 C129          -3.7250     5.3936    -7.8638 C.ar    
 130 C130          -5.0730     5.0876    -7.8798 C.ar    
 131 C131          -3.2261     6.2688    -6.9172 C.ar    
 132 C132          -5.9230     5.6611    -6.9527 C.ar    
 133 C133          -4.0761     6.8422    -5.9901 C.ar    
 134 C134          -5.4249     6.5403    -6.0093 C.ar    
 135 N135          -2.2753     3.7745   -11.6564 N.am    
 136 C136          -1.4706     3.1105   -12.6849 C.3     
 137 C137          -1.6996     1.6225   -12.6190 C.2     
 138 O138          -2.4351     1.1590   -11.7733 O.2     
 139 C139          -1.8790     3.6287   -14.0654 C.3     
 140 C140          -3.3863     3.4453   -14.2535 C.3     
 141 C141          -1.5281     5.1137   -14.1770 C.3     
 142 N142          -1.0871     0.8067   -13.4998 N.am    
 143 C143          -1.3925    -0.6261   -13.5060 C.3     
 144 C144          -2.6175    -0.8749   -14.3477 C.2     
 145 O145          -3.1800     0.0532   -14.8891 O.2     
 146 C146          -0.2072    -1.3977   -14.0898 C.3     
 147 C147           1.0041    -1.2460   -13.1675 C.3     
 148 C148           2.1715    -2.0060   -13.7425 C.2     
 149 O149           2.0474    -2.6072   -14.7832 O.2     
 150 O150           3.3492    -2.0150   -13.0986 O.3     
 151 N151          -3.0879    -2.1289   -14.4989 N.am    
 152 H152         -12.3238     1.3257   -10.8653 H       
 153 H153         -12.5042     3.0962   -10.8329 H       
 154 H154         -10.8841     2.3688   -10.9532 H       
 155 H155         -10.9471     4.0745    -8.8653 H       
 156 H156         -10.9422     2.2763    -6.5645 H       
 157 H157         -13.2866     3.0821    -6.6206 H       
 158 H158         -12.4176     3.7425    -5.2146 H       
 159 H159         -12.7076     4.7651    -6.6423 H       
 160 H160         -10.3003     3.8751    -4.4921 H       
 161 H161          -7.9023     5.2371    -5.4522 H       
 162 H162          -7.4097     5.5092    -3.0272 H       
 163 H163          -9.0064     4.8264    -2.6365 H       
 164 H164          -8.3698     2.7379    -3.8695 H       
 165 H165          -5.6400     4.0979    -3.9956 H       
 166 H166          -5.9866     2.4193    -4.4760 H       
 167 H167          -6.7022     3.7713    -5.3861 H       
 168 H168          -6.3655     3.5443    -1.7151 H       
 169 H169          -8.0286     2.9972    -1.3942 H       
 170 H170          -6.8558     1.8877    -2.1435 H       
 171 H171          -7.5051     7.4965    -4.0381 H       
 172 H172          -9.7563     9.1796    -4.8766 H       
 173 H173          -8.0555    10.5870    -5.3545 H       
 174 H174          -7.7422    10.7399    -3.6089 H       
 175 H175         -11.0955    10.3920    -3.3638 H       
 176 H176         -10.4210    10.9089    -0.7041 H       
 177 H177         -10.1050     8.5085    -0.3717 H       
 178 H178         -11.5722     9.0174     0.4982 H       
 179 H179         -12.5627     6.0203    -1.4085 H       
 180 H180         -12.3125    11.8024     0.5272 H       
 181 H181         -14.9443    11.4976     0.2493 H       
 182 H182         -14.7938    11.1459    -2.1628 H       
 183 H183         -15.6652    12.6700    -1.8695 H       
 184 H184         -13.2414    13.6899    -4.3668 H       
 185 H185         -14.8915    15.6657     1.8363 H       
 186 H186         -17.0050    15.7017     2.6963 H       
 187 H187         -17.5407    16.4764     1.1782 H       
 188 H188         -18.0490    13.7549     2.1027 H       
 189 H189         -18.6658    14.5615     0.6312 H       
 190 H190         -17.0814    13.5636    -0.6900 H       
 191 H191         -16.7624    12.4831     0.6934 H       
 192 H192         -14.4462    17.8672     1.0879 H       
 193 H193         -15.5067    19.2098    -1.0233 H       
 194 H194         -15.3460    17.2078    -2.4350 H       
 195 H195         -14.2397    18.4563    -3.0562 H       
 196 H196         -12.3819    17.3658    -1.7354 H       
 197 H197         -13.5117    16.0529    -1.3258 H       
 198 H198         -13.7896    15.4783    -3.6728 H       
 199 H199         -12.8459    16.9002    -4.1784 H       
 200 H200         -11.3136    15.2253    -2.4329 H       
 201 H201         -12.3634    15.7386    -5.6895 H       
 202 H202          -9.7138    13.7670    -3.4353 H       
 203 H203          -9.6746    13.5891    -5.1054 H       
 204 H204         -13.4903    20.3617    -2.5280 H       
 205 H205         -11.0775    20.5270    -0.8799 H       
 206 H206         -11.3564    22.9851    -0.4323 H       
 207 H207         -14.2082    22.4361    -1.3717 H       
 208 H208         -13.6304    23.9518    -0.6388 H       
 209 H209         -13.0088    23.4367    -2.2251 H       
 210 H210         -11.9296    21.2072     1.2608 H       
 211 H211         -12.8689    22.7057     1.4620 H       
 212 H212         -13.6179    21.2812     0.7019 H       
 213 H213          -9.5732    22.4546    -1.9021 H       
 214 H214          -9.7419    23.7653    -4.1762 H       
 215 H215         -11.3371    22.1723    -5.1433 H       
 216 H216          -9.8435    22.1614    -6.1115 H       
 217 H217         -10.4937    18.6108    -5.5575 H       
 218 H218          -8.0332    22.1389    -6.1358 H       
 219 H219          -5.7521    21.5084    -4.3572 H       
 220 H220          -4.2432    23.0135    -5.6873 H       
 221 H221          -5.6770    23.6584    -6.5219 H       
 222 H222          -6.6142    24.3905    -4.3460 H       
 223 H223          -5.1804    23.7456    -3.5114 H       
 224 H224          -3.7340    25.2931    -4.8005 H       
 225 H225          -5.1678    25.9380    -5.6351 H       
 226 H226          -5.5835    26.1611    -2.8505 H       
 227 H227          -3.5157    27.4347    -5.4188 H       
 228 H228          -3.2605    28.9318    -4.7003 H       
 229 H229          -4.2498    29.3839    -2.6514 H       
 230 H230          -3.9784    20.2761    -5.5639 H       
 231 H231          -3.7667    19.7059    -8.1943 H       
 232 H232          -5.5827    17.6755    -8.2554 H       
 233 H233          -6.4506    18.8278    -7.2127 H       
 234 H234          -7.7079    18.4431    -9.9875 H       
 235 H235          -3.7926    21.2310    -8.2634 H       
 236 H236          -7.6944    20.2737   -11.7587 H       
 237 H237          -6.1846    22.6458   -12.3534 H       
 238 H238          -3.1140    23.2539    -9.4549 H       
 239 H239          -4.3011    23.9597   -11.4889 H       
 240 H240          -4.1866    16.7214    -8.2808 H       
 241 H241          -2.8600    15.8219    -5.8202 H       
 242 H242          -0.8632    14.9378    -7.0620 H       
 243 H243          -1.4206    15.8076    -8.5115 H       
 244 H244          -0.0281    16.1469    -5.1316 H       
 245 H245          -1.3550    18.2285    -8.6099 H       
 246 H246           1.0457    18.2022    -4.3061 H       
 247 H247          -0.2828    20.2876    -7.7919 H       
 248 H248           1.9535    20.6207    -5.8278 H       
 249 H249          -2.7976    13.3776    -5.6978 H       
 250 H250          -4.6720    12.3205    -7.7704 H       
 251 H251          -3.9281    11.1660    -5.0436 H       
 252 H252          -5.3899    12.1208    -5.3900 H       
 253 H253          -4.1759    10.0391    -8.6167 H       
 254 H254          -1.4572     9.0878    -8.1362 H       
 255 H255          -0.8904     9.1582   -10.5828 H       
 256 H256          -2.3655    10.1143   -10.8620 H       
 257 H257          -1.5319    11.8550    -9.3051 H       
 258 H258          -0.0568    10.8988    -9.0259 H       
 259 H259           0.6214    13.3152   -10.0077 H       
 260 H260           0.9129    13.2820   -11.6620 H       
 261 H261          -1.1543     7.0706    -9.8974 H       
 262 H262          -3.7298     5.8330   -10.4993 H       
 263 H263          -3.1759     3.7848    -9.1539 H       
 264 H264          -1.8036     4.6661    -8.4410 H       
 265 H265          -5.4621     4.4007    -8.6168 H       
 266 H266          -2.1722     6.5042    -6.9017 H       
 267 H267          -6.9762     5.4225    -6.9656 H       
 268 H268          -3.6862     7.5257    -5.2503 H       
 269 H269          -6.0890     6.9883    -5.2850 H       
 270 H270          -3.0807     3.3500   -11.3217 H       
 271 H271          -0.4153     3.3236   -12.5145 H       
 272 H272          -1.3462     3.0705   -14.8352 H       
 273 H273          -3.9205     4.0733   -13.5405 H       
 274 H274          -3.6633     3.7312   -15.2682 H       
 275 H275          -3.6490     2.4008   -14.0858 H       
 276 H276          -0.4543     5.2443   -14.0430 H       
 277 H277          -1.8191     5.4828   -15.1605 H       
 278 H278          -2.0609     5.6718   -13.4072 H       
 279 H279          -0.4440     1.1683   -14.1296 H       
 280 H280          -1.5780    -0.9625   -12.4860 H       
 281 H281          -0.4678    -2.4525   -14.1769 H       
 282 H282           0.0347    -1.0006   -15.0756 H       
 283 H283           1.2646    -0.1912   -13.0804 H       
 284 H284           0.7621    -1.6431   -12.1817 H       
 285 H285           4.0686    -2.5163   -13.5062 H       
 286 H286          -2.6380    -2.8712   -14.0659 H       
 287 H287          -3.8764    -2.2890   -15.0406 H       
@<TRIPOS>BOND
   1    1    2 2
   2    1    3 1
   3    1    4 am
   4    3  152 1
   5    3  153 1
   6    3  154 1
   7    4    5 1
   8    4  155 1
   9    5    8 1
  10    5    6 1
  11    5  156 1
  12    6    7 2
  13    6    9 am
  14    8  157 1
  15    8  158 1
  16    8  159 1
  17    9   10 1
  18    9  160 1
  19   10   11 1
  20   10   13 1
  21   10  161 1
  22   11   17 am
  23   11   12 2
  24   13   14 1
  25   13  162 1
  26   13  163 1
  27   14   16 1
  28   14   15 1
  29   14  164 1
  30   15  165 1
  31   15  166 1
  32   15  167 1
  33   16  168 1
  34   16  169 1
  35   16  170 1
  36   17   18 1
  37   17  171 1
  38   18   21 1
  39   18   19 1
  40   18  172 1
  41   19   20 2
  42   19   23 am
  43   21   22 1
  44   21  173 1
  45   21  174 1
  46   22  114 1
  47   23   24 1
  48   23  175 1
  49   24   27 1
  50   24   25 1
  51   24  176 1
  52   25   26 2
  53   25   31 am
  54   27   28 1
  55   27  177 1
  56   27  178 1
  57   28   30 1
  58   28   29 2
  59   30  179 1
  60   31   32 1
  61   31  180 1
  62   32   33 1
  63   32   35 1
  64   32  181 1
  65   33   39 am
  66   33   34 2
  67   35   36 1
  68   35  182 1
  69   35  183 1
  70   36   37 1
  71   36   38 2
  72   37  184 1
  73   39   45 1
  74   39   40 1
  75   40   43 1
  76   40   41 1
  77   40  185 1
  78   41   42 2
  79   41   46 am
  80   43   44 1
  81   43  186 1
  82   43  187 1
  83   44   45 1
  84   44  188 1
  85   44  189 1
  86   45  190 1
  87   45  191 1
  88   46   47 1
  89   46  192 1
  90   47   48 1
  91   47   50 1
  92   47  193 1
  93   48   57 am
  94   48   49 2
  95   50   51 1
  96   50  194 1
  97   50  195 1
  98   51   52 1
  99   51  196 1
 100   51  197 1
 101   52   53 1
 102   52  198 1
 103   52  199 1
 104   53   54 1
 105   53  200 1
 106   54   56 1
 107   54   55 2
 108   55  201 1
 109   56  202 1
 110   56  203 1
 111   57   58 1
 112   57  204 1
 113   58   61 1
 114   58   59 1
 115   58  205 1
 116   59   60 2
 117   59   64 am
 118   61   63 1
 119   61   62 1
 120   61  206 1
 121   62  207 1
 122   62  208 1
 123   62  209 1
 124   63  210 1
 125   63  211 1
 126   63  212 1
 127   64   65 1
 128   64  213 1
 129   65   66 1
 130   65   68 1
 131   65  214 1
 132   66   67 2
 133   66   72 am
 134   68   69 1
 135   68  215 1
 136   68  216 1
 137   69   70 1
 138   69   71 2
 139   70  217 1
 140   72   73 1
 141   72  218 1
 142   73   76 1
 143   73   74 1
 144   73  219 1
 145   74   75 2
 146   74   83 am
 147   76   77 1
 148   76  220 1
 149   76  221 1
 150   77   78 1
 151   77  222 1
 152   77  223 1
 153   78   79 1
 154   78  224 1
 155   78  225 1
 156   79   80 1
 157   79  226 1
 158   80   81 1
 159   80   82 2
 160   81  227 1
 161   81  228 1
 162   82  229 1
 163   83   84 1
 164   83  230 1
 165   84   85 1
 166   84   87 1
 167   84  231 1
 168   85   97 am
 169   85   86 2
 170   87   88 1
 171   87  232 1
 172   87  233 1
 173   88   89 2
 174   88   90 1
 175   89   93 1
 176   89  234 1
 177   90   92 ar
 178   90   91 ar
 179   91   93 1
 180   91   94 ar
 181   92   95 ar
 182   92  235 1
 183   93  236 1
 184   94   96 ar
 185   94  237 1
 186   95   96 ar
 187   95  238 1
 188   96  239 1
 189   97   98 1
 190   97  240 1
 191   98  101 1
 192   98   99 1
 193   98  241 1
 194   99  100 2
 195   99  109 am
 196  101  102 1
 197  101  242 1
 198  101  243 1
 199  102  103 ar
 200  102  104 ar
 201  103  105 ar
 202  103  244 1
 203  104  106 ar
 204  104  245 1
 205  105  107 ar
 206  105  246 1
 207  106  107 ar
 208  106  247 1
 209  107  108 1
 210  108  248 1
 211  109  110 1
 212  109  249 1
 213  110  113 1
 214  110  111 1
 215  110  250 1
 216  111  112 2
 217  111  115 am
 218  113  114 1
 219  113  251 1
 220  113  252 1
 221  115  116 1
 222  115  253 1
 223  116  117 1
 224  116  119 1
 225  116  254 1
 226  117  118 2
 227  117  124 am
 228  119  120 1
 229  119  255 1
 230  119  256 1
 231  120  121 1
 232  120  257 1
 233  120  258 1
 234  121  122 am
 235  121  123 2
 236  122  259 1
 237  122  260 1
 238  124  125 1
 239  124  261 1
 240  125  126 1
 241  125  128 1
 242  125  262 1
 243  126  127 2
 244  126  135 am
 245  128  129 1
 246  128  263 1
 247  128  264 1
 248  129  130 ar
 249  129  131 ar
 250  130  132 ar
 251  130  265 1
 252  131  133 ar
 253  131  266 1
 254  132  134 ar
 255  132  267 1
 256  133  134 ar
 257  133  268 1
 258  134  269 1
 259  135  136 1
 260  135  270 1
 261  136  139 1
 262  136  137 1
 263  136  271 1
 264  137  138 2
 265  137  142 am
 266  139  140 1
 267  139  141 1
 268  139  272 1
 269  140  273 1
 270  140  274 1
 271  140  275 1
 272  141  276 1
 273  141  277 1
 274  141  278 1
 275  142  143 1
 276  142  279 1
 277  143  146 1
 278  143  144 1
 279  143  280 1
 280  144  151 am
 281  144  145 2
 282  146  147 1
 283  146  281 1
 284  146  282 1
 285  147  148 1
 286  147  283 1
 287  147  284 1
 288  148  150 1
 289  148  149 2
 290  150  285 1
 291  151  286 1
 292  151  287 1

#	End of record

