#	Name: ASD01813361
#	Creating user name:	WinNT
#	Creation time:	15. 06. 2019 19:30

#	Modifying user name:	WinNT
#	Modification time:	15. 06. 2019 19:30

#	Program:	/corina/corina34_cracker 3.40 0067  02.08.2006

@<TRIPOS>MOLECULE
ASD01813361
  54   57    0    0    0
SMALL
NO_CHARGES


@<TRIPOS>ATOM
   1 C1            -0.0169     1.3972     0.0097 C.2     
   2 C2             0.0021    -0.0041     0.0020 C.2     
   3 C3             1.1986    -0.6593    -0.0129 C.2     
   4 C4             2.3918     0.0821    -0.0204 C.2     
   5 N5             2.3437     1.4497    -0.0122 N.am    
   6 C6             1.1421     2.0937     0.0024 C.2     
   7 C7             3.6227    -0.5889    -0.0356 C.2     
   8 C8             4.7877     0.1218    -0.0425 C.2     
   9 C9             4.7345     1.5280    -0.0346 C.2     
  10 C10            3.4812     2.1736    -0.0189 C.2     
  11 O11            3.4258     3.3917    -0.0123 O.2     
  12 C12            5.9703     2.3140    -0.0413 C.2     
  13 O13            5.9124     3.6618    -0.0337 O.3     
  14 O14            7.0487     1.7516    -0.0537 O.2     
  15 C15            3.6593    -2.0954    -0.0439 C.3     
  16 C16            3.7837    -2.5946    -1.4848 C.3     
  17 N17            3.8194    -4.0631    -1.4929 N.3     
  18 C18            2.5422    -4.6223    -1.0391 C.3     
  19 C19            2.5562    -6.1249    -1.1458 C.ar    
  20 C20            3.4804    -6.7902    -1.9227 C.ar    
  21 C21            4.5350    -6.0500    -2.7053 C.3     
  22 C22            4.1523    -4.5752    -2.8318 C.3     
  23 C23            1.6049    -6.8443    -0.4361 C.ar    
  24 C24            1.5766    -8.2254    -0.5046 C.ar    
  25 C25            2.5083    -8.8964    -1.2916 C.ar    
  26 C26            3.4553    -8.1753    -1.9963 C.ar    
  27 O27            2.4883   -10.2541    -1.3664 O.3     
  28 C28            3.4754   -10.8729    -2.1939 C.3     
  29 O29            0.6428    -8.9248     0.1941 O.3     
  30 C30           -0.2803    -8.1685     0.9803 C.3     
  31 H31           -0.9605     1.9226     0.0170 H       
  32 H32           -0.9233    -0.5609     0.0082 H       
  33 H33            1.2282    -1.7389    -0.0187 H       
  34 H34            1.1156     3.1733     0.0087 H       
  35 H35            5.7393    -0.3889    -0.0536 H       
  36 H36            6.7544     4.1373    -0.0385 H       
  37 H37            4.5153    -2.4412     0.5356 H       
  38 H38            2.7412    -2.4836     0.3971 H       
  39 H39            2.9277    -2.2488    -2.0643 H       
  40 H40            4.7018    -2.2064    -1.9259 H       
  41 H41            2.3734    -4.3370    -0.0007 H       
  42 H42            1.7362    -4.2253    -1.6562 H       
  43 H43            5.4922    -6.1325    -2.1905 H       
  44 H44            4.6217    -6.4880    -3.6997 H       
  45 H45            3.2871    -4.4763    -3.4874 H       
  46 H46            4.9916    -4.0128    -3.2409 H       
  47 H47            0.8824    -6.3224     0.1738 H       
  48 H48            4.1792    -8.6936    -2.6077 H       
  49 H49            3.3620   -10.5214    -3.2194 H       
  50 H50            4.4694   -10.6143    -1.8290 H       
  51 H51            3.3477   -11.9550    -2.1645 H       
  52 H52           -0.8423    -7.4952     0.3331 H       
  53 H53           -0.9687    -8.8466     1.4847 H       
  54 H54            0.2662    -7.5869     1.7227 H       
@<TRIPOS>BOND
   1    1    2 1
   2    1    6 2
   3    1   31 1
   4    2    3 2
   5    2   32 1
   6    3    4 1
   7    3   33 1
   8    4    5 1
   9    4    7 2
  10    5    6 1
  11    5   10 am
  12    6   34 1
  13    7    8 1
  14    7   15 1
  15    8    9 2
  16    8   35 1
  17    9   10 1
  18    9   12 1
  19   10   11 2
  20   12   13 1
  21   12   14 2
  22   13   36 1
  23   15   16 1
  24   15   37 1
  25   15   38 1
  26   16   17 1
  27   16   39 1
  28   16   40 1
  29   17   18 1
  30   17   22 1
  31   18   19 1
  32   18   41 1
  33   18   42 1
  34   19   20 ar
  35   19   23 ar
  36   20   21 1
  37   20   26 ar
  38   21   22 1
  39   21   43 1
  40   21   44 1
  41   22   45 1
  42   22   46 1
  43   23   24 ar
  44   23   47 1
  45   24   25 ar
  46   24   29 1
  47   25   26 ar
  48   25   27 1
  49   26   48 1
  50   27   28 1
  51   28   49 1
  52   28   50 1
  53   28   51 1
  54   29   30 1
  55   30   52 1
  56   30   53 1
  57   30   54 1

#	End of record

