#	Name: ASD03332175
#	Creating user name:	WinNT
#	Creation time:	15. 06. 2019 20:40

#	Modifying user name:	WinNT
#	Modification time:	15. 06. 2019 20:40

#	Program:	/corina/corina34_cracker 3.40 0067  02.08.2006

@<TRIPOS>MOLECULE
ASD03332175
  54   56    0    0    0
SMALL
NO_CHARGES


@<TRIPOS>ATOM
   1 C1            -0.0028     1.3578    -0.1263 C.2     
   2 N2             0.0179     0.0074    -0.2178 N.pl3   
   3 C3             1.3079    -0.3976    -0.0353 C.2     
   4 N4             2.0522     0.6615     0.1802 N.2     
   5 C5             1.2716     1.7630     0.1336 C.2     
   6 C6             1.7186     3.1536     0.3289 C.2     
   7 O7             0.9163     4.0652     0.2621 O.2     
   8 N8             3.0163     3.4151     0.5815 N.am    
   9 C9            -1.1493    -0.8472    -0.4528 C.3     
  10 C10           -1.9690    -0.2709    -1.6114 C.3     
  11 C11           -2.9678     0.7512    -1.0778 C.3     
  12 N12           -2.4178     1.4725     0.0719 N.3     
  13 C13           -1.2163     2.2340    -0.3003 C.3     
  14 C14            1.7875    -1.7968    -0.0736 C.ar    
  15 C15            3.0774    -2.0831    -0.5214 C.ar    
  16 C16            3.5186    -3.3900    -0.5548 C.ar    
  17 C17            2.6847    -4.4154    -0.1459 C.ar    
  18 C18            1.4044    -4.1380     0.2987 C.ar    
  19 C19            0.9536    -2.8347     0.3432 C.ar    
  20 C20            3.4607     4.7976     0.7756 C.3     
  21 C21            3.2468     5.2018     2.2356 C.3     
  22 C22            4.9241     4.9077     0.4331 C.2     
  23 F23            3.6711     6.5219     2.4210 F       
  24 C24            1.7610     5.0900     2.5834 C.3     
  25 C25            4.0546     4.2739     3.1452 C.3     
  26 N26            5.5532     6.0950     0.5377 N.am    
  27 O27            5.5357     3.9278     0.0632 O.2     
  28 C28            6.9759     6.2020     0.2048 C.3     
  29 H29            3.6562     2.6880     0.6347 H       
  30 H30           -0.8182    -1.8543    -0.7064 H       
  31 H31           -1.7636    -0.8804     0.4469 H       
  32 H32           -1.3001     0.2132    -2.3230 H       
  33 H33           -2.5068    -1.0766    -2.1110 H       
  34 H34           -3.2063     1.4642    -1.8670 H       
  35 H35           -3.8793     0.2362    -0.7745 H       
  36 H36           -3.1129     2.0742     0.4875 H       
  37 H37           -1.1276     3.1109     0.3410 H       
  38 H38           -1.2923     2.5487    -1.3411 H       
  39 H39            3.7291    -1.2836    -0.8415 H       
  40 H40            4.5170    -3.6130    -0.9011 H       
  41 H41            3.0346    -5.4367    -0.1742 H       
  42 H42            0.7580    -4.9429     0.6163 H       
  43 H43           -0.0460    -2.6194     0.6908 H       
  44 H44            2.8851     5.4586     0.1275 H       
  45 H45            1.4304     4.0614     2.4389 H       
  46 H46            1.6086     5.3779     3.6235 H       
  47 H47            1.1855     5.7510     1.9353 H       
  48 H48            5.1131     4.3535     2.8975 H       
  49 H49            3.9023     4.5619     4.1854 H       
  50 H50            3.7241     3.2454     3.0008 H       
  51 H51            5.0641     6.8786     0.8335 H       
  52 H52            7.5514     5.5410     0.8528 H       
  53 H53            7.1282     5.9140    -0.8354 H       
  54 H54            7.3064     7.2305     0.3492 H       
@<TRIPOS>BOND
   1    1    2 1
   2    1    5 2
   3    1   13 1
   4    2    3 1
   5    2    9 1
   6    3    4 2
   7    3   14 1
   8    4    5 1
   9    5    6 1
  10    6    7 2
  11    6    8 am
  12    8   20 1
  13    8   29 1
  14    9   10 1
  15    9   30 1
  16    9   31 1
  17   10   11 1
  18   10   32 1
  19   10   33 1
  20   11   12 1
  21   11   34 1
  22   11   35 1
  23   12   13 1
  24   12   36 1
  25   13   37 1
  26   13   38 1
  27   14   15 ar
  28   14   19 ar
  29   15   16 ar
  30   15   39 1
  31   16   17 ar
  32   16   40 1
  33   17   18 ar
  34   17   41 1
  35   18   19 ar
  36   18   42 1
  37   19   43 1
  38   20   21 1
  39   20   22 1
  40   20   44 1
  41   21   23 1
  42   21   24 1
  43   21   25 1
  44   22   26 am
  45   22   27 2
  46   24   45 1
  47   24   46 1
  48   24   47 1
  49   25   48 1
  50   25   49 1
  51   25   50 1
  52   26   28 1
  53   26   51 1
  54   28   52 1
  55   28   53 1
  56   28   54 1

#	End of record

