#	Name: ASD03091582
#	Creating user name:	WinNT
#	Creation time:	15. 06. 2019 20:31

#	Modifying user name:	WinNT
#	Modification time:	15. 06. 2019 20:31

#	Program:	/corina/corina34_cracker 3.40 0067  02.08.2006

@<TRIPOS>MOLECULE
ASD03091582
  40   43    0    0    0
SMALL
NO_CHARGES


@<TRIPOS>ATOM
   1 C1            -0.0170     1.4027     0.0098 C.ar    
   2 C2             0.0021    -0.0041     0.0020 C.ar    
   3 C3             1.2227    -0.6695    -0.0132 C.ar    
   4 C4             2.3991     0.0459    -0.0206 C.ar    
   5 C5             2.3839     1.4403    -0.0129 C.ar    
   6 C6             1.1812     2.1212     0.0022 C.ar    
   7 O7            -1.2779    -0.4284     0.0119 O.3     
   8 C8            -2.1306     0.6171     0.0257 C.2     
   9 C9            -1.4298     1.7805     0.0311 C.2     
  10 C10           -3.5965     0.5127     0.0387 C.2     
  11 O11           -4.2780     1.5204     0.0502 O.2     
  12 N12           -4.1859    -0.6993     0.0378 N.am    
  13 N13           -6.8782    -1.9564     1.8258 N.3     
  14 C14           -6.1546    -0.7218     1.4933 C.3     
  15 C15           -5.6471    -0.8034     0.0507 C.3     
  16 C16           -6.0719    -2.1501    -0.5480 C.3     
  17 C17           -7.6017    -2.2483    -0.4951 C.3     
  18 C18           -8.0550    -2.1274     0.9625 C.3     
  19 C19           -5.9921    -3.1258     1.7448 C.3     
  20 C20           -5.4794    -3.2754     0.3097 C.3     
  21 N21            3.5888     2.1516    -0.0201 N.pl3   
  22 H22            1.2482    -1.7491    -0.0189 H       
  23 H23            3.3433    -0.4782    -0.0320 H       
  24 H24            1.1678     3.2011     0.0084 H       
  25 H25           -1.8340     2.7819     0.0423 H       
  26 H26           -3.6425    -1.5028     0.0286 H       
  27 H27           -6.8253     0.1314     1.5952 H       
  28 H28           -5.3087    -0.6026     2.1702 H       
  29 H29           -6.0782     0.0088    -0.5346 H       
  30 H30           -5.7267    -2.2275    -1.5790 H       
  31 H31           -8.0400    -1.4411    -1.0820 H       
  32 H32           -7.9201    -3.2098    -0.8980 H       
  33 H33           -8.5908    -3.0311     1.2529 H       
  34 H34           -8.7123    -1.2644     1.0686 H       
  35 H35           -5.1476    -2.9897     2.4203 H       
  36 H36           -6.5449    -4.0213     2.0287 H       
  37 H37           -5.7893    -4.2410    -0.0900 H       
  38 H38           -4.3916    -3.2068     0.3015 H       
  39 H39            4.4335     1.6747    -0.0304 H       
  40 H40            3.5795     3.1215    -0.0148 H       
@<TRIPOS>BOND
   1    1    2 ar
   2    1    6 ar
   3    1    9 1
   4    2    3 ar
   5    2    7 1
   6    3    4 ar
   7    3   22 1
   8    4    5 ar
   9    4   23 1
  10    5    6 ar
  11    5   21 1
  12    6   24 1
  13    7    8 1
  14    8    9 2
  15    8   10 1
  16    9   25 1
  17   10   11 2
  18   10   12 am
  19   12   15 1
  20   12   26 1
  21   13   14 1
  22   13   18 1
  23   13   19 1
  24   14   15 1
  25   14   27 1
  26   14   28 1
  27   15   16 1
  28   15   29 1
  29   16   17 1
  30   16   20 1
  31   16   30 1
  32   17   18 1
  33   17   31 1
  34   17   32 1
  35   18   33 1
  36   18   34 1
  37   19   20 1
  38   19   35 1
  39   19   36 1
  40   20   37 1
  41   20   38 1
  42   21   39 1
  43   21   40 1

#	End of record

