#	Name: ASD09116389
#	Creating user name:	WinNT
#	Creation time:	15. 06. 2019 21:21

#	Modifying user name:	WinNT
#	Modification time:	15. 06. 2019 21:21

#	Program:	/corina/corina34_cracker 3.40 0067  02.08.2006

@<TRIPOS>MOLECULE
ASD09116389
  75   81    0    0    0
SMALL
NO_CHARGES


@<TRIPOS>ATOM
   1 N1            -0.0590     1.5277    -0.5291 N.2     
   2 N2            -0.0822     0.2491    -1.1091 N.pl3   
   3 C3             1.1948     1.9114    -0.4984 C.2     
   4 N4             1.9589     0.9475    -1.0255 N.2     
   5 C5             1.2029    -0.0626    -1.3990 C.2     
   6 N6             1.6431    -1.2350    -1.9832 N.pl3   
   7 C7            -1.2077    -0.5436    -1.3410 C.ar    
   8 N8             1.6572     3.1282     0.0026 N.pl3   
   9 C9             3.0333     3.3745     0.0836 C.ar    
  10 C10            3.5138     4.6735    -0.0238 C.ar    
  11 C11            3.9167     2.3211     0.2767 C.ar    
  12 C12            5.2746     2.5633     0.3572 C.ar    
  13 C13            5.7566     3.8595     0.2445 C.ar    
  14 C14            4.8720     4.9162     0.0562 C.ar    
  15 N15           -1.1864    -1.4607    -2.2967 N.ar    
  16 N16           -2.1983    -2.2096    -2.5570 N.ar    
  17 C17           -3.3306    -2.1060    -1.8800 C.ar    
  18 C18           -3.4383    -1.1799    -0.8386 C.ar    
  19 C19           -2.3546    -0.3737    -0.5613 C.ar    
  20 C20           -4.5156    -2.9299    -2.2134 C.ar    
  21 C21           -5.7517    -2.3010    -2.3712 C.ar    
  22 C22           -5.8379    -0.8038    -2.2547 C.3     
  23 C23           -5.7907    -0.3552    -0.7966 C.3     
  24 C24           -4.7035    -1.1078    -0.0341 C.3     
  25 C25           -4.4120    -4.3082    -2.3649 C.ar    
  26 C26           -5.5405    -5.0511    -2.6531 C.ar    
  27 C27           -6.7672    -4.4266    -2.7877 C.ar    
  28 C28           -6.8730    -3.0537    -2.6466 C.ar    
  29 N29            7.1339     4.1047     0.3266 N.3     
  30 F30            5.3406     6.1785    -0.0537 F       
  31 C31            7.6723     3.6648     1.6268 C.3     
  32 C32            8.8037     2.6565     1.3356 C.3     
  33 C33            9.2227     3.0108    -0.1155 C.3     
  34 C34            7.8628     3.3980    -0.7482 C.3     
  35 C35            9.8304     1.7975    -0.8222 C.3     
  36 C36           11.1541     1.4262    -0.1507 C.3     
  37 C37           11.7148     0.1338    -0.7697 C.3     
  38 C38           13.0851     0.4955    -1.3790 C.3     
  39 C39           13.5311     1.7526    -0.5917 C.3     
  40 C40           12.2033     2.5281    -0.4055 C.3     
  41 H41            2.5891    -1.3674    -2.1521 H       
  42 H42            1.0061    -1.9257    -2.2244 H       
  43 H43            1.0256     3.8039     0.2949 H       
  44 H44            2.8262     5.4935    -0.1700 H       
  45 H45            3.5423     1.3119     0.3645 H       
  46 H46            5.9611     1.7433     0.5082 H       
  47 H47           -2.3935     0.3668     0.2239 H       
  48 H48           -5.0027    -0.3556    -2.7929 H       
  49 H49           -6.7722    -0.4646    -2.7020 H       
  50 H50           -5.5823     0.7140    -0.7567 H       
  51 H51           -6.7563    -0.5496    -0.3299 H       
  52 H52           -5.0502    -2.1187     0.1800 H       
  53 H53           -4.5022    -0.5924     0.9050 H       
  54 H54           -3.4540    -4.7954    -2.2581 H       
  55 H55           -5.4646    -6.1217    -2.7739 H       
  56 H56           -7.6475    -5.0135    -3.0042 H       
  57 H57           -7.8340    -2.5724    -2.7521 H       
  58 H58            8.0698     4.5207     2.1723 H       
  59 H59            6.8872     3.1830     2.2095 H       
  60 H60            9.6364     2.8022     2.0237 H       
  61 H61            8.4316     1.6334     1.3904 H       
  62 H62            9.9132     3.8541    -0.1276 H       
  63 H63            7.3177     2.5045    -1.0524 H       
  64 H64            8.0157     4.0591    -1.6012 H       
  65 H65            9.1410     0.9558    -0.7565 H       
  66 H66           10.0097     2.0394    -1.8698 H       
  67 H67           11.0044     1.2927     0.9207 H       
  68 H68           11.8381    -0.6266     0.0015 H       
  69 H69           11.0439    -0.2289    -1.5484 H       
  70 H70           13.7949    -0.3186    -1.2317 H       
  71 H71           12.9823     0.7260    -2.4393 H       
  72 H72           13.9543     1.4741     0.3734 H       
  73 H73           14.2430     2.3394    -1.1721 H       
  74 H74           11.9580     3.0869    -1.3087 H       
  75 H75           12.2695     3.1975     0.4522 H       
@<TRIPOS>BOND
   1    1    2 1
   2    1    3 2
   3    2    7 1
   4    2    5 1
   5    3    4 1
   6    3    8 1
   7    4    5 2
   8    5    6 1
   9    6   41 1
  10    6   42 1
  11    7   15 ar
  12    7   19 ar
  13    8    9 1
  14    8   43 1
  15    9   10 ar
  16    9   11 ar
  17   10   14 ar
  18   10   44 1
  19   11   12 ar
  20   11   45 1
  21   12   13 ar
  22   12   46 1
  23   13   14 ar
  24   13   29 1
  25   14   30 1
  26   15   16 ar
  27   16   17 ar
  28   17   18 ar
  29   17   20 1
  30   18   19 ar
  31   18   24 1
  32   19   47 1
  33   20   21 ar
  34   20   25 ar
  35   21   22 1
  36   21   28 ar
  37   22   23 1
  38   22   48 1
  39   22   49 1
  40   23   24 1
  41   23   50 1
  42   23   51 1
  43   24   52 1
  44   24   53 1
  45   25   26 ar
  46   25   54 1
  47   26   27 ar
  48   26   55 1
  49   27   28 ar
  50   27   56 1
  51   28   57 1
  52   29   31 1
  53   29   34 1
  54   31   32 1
  55   31   58 1
  56   31   59 1
  57   32   33 1
  58   32   60 1
  59   32   61 1
  60   33   34 1
  61   33   35 1
  62   33   62 1
  63   34   63 1
  64   34   64 1
  65   35   36 1
  66   35   65 1
  67   35   66 1
  68   36   37 1
  69   36   40 1
  70   36   67 1
  71   37   38 1
  72   37   68 1
  73   37   69 1
  74   38   39 1
  75   38   70 1
  76   38   71 1
  77   39   40 1
  78   39   72 1
  79   39   73 1
  80   40   74 1
  81   40   75 1

#	End of record

