#	Name: ASD01120200
#	Creating user name:	WinNT
#	Creation time:	15. 06. 2019 18:59

#	Modifying user name:	WinNT
#	Modification time:	15. 06. 2019 18:59

#	Program:	/corina/corina34_cracker 3.40 0067  02.08.2006

@<TRIPOS>MOLECULE
ASD01120200
  41   43    0    0    0
SMALL
NO_CHARGES


@<TRIPOS>ATOM
   1 C1            -0.0167     1.3828     0.0096 C.ar    
   2 C2             0.0021    -0.0041     0.0020 C.ar    
   3 C3            -1.1785    -0.7198     0.0090 C.ar    
   4 C4            -2.3914    -0.0514     0.0242 C.ar    
   5 C5            -2.4156     1.3515     0.0324 C.ar    
   6 C6            -1.2159     2.0636     0.0305 C.ar    
   7 O7            -3.6828    -0.4556     0.0344 O.3     
   8 C8            -4.4648     0.6381     0.0482 C.2     
   9 N9            -3.7266     1.7186     0.0472 N.2     
  10 Cl10           1.4775     2.2664     0.0001 Cl      
  11 N11           -5.8411     0.6234     0.0614 N.am    
  12 S12           -6.6843     2.0485     0.0777 S.o2    
  13 O13           -8.0618     1.7001     0.0544 O.2     
  14 O14           -6.1020     2.8477     1.0983 O.2     
  15 C15           -6.3526     2.8683    -1.4462 C.ar    
  16 C16           -7.1611     2.6402    -2.5441 C.ar    
  17 C17           -6.9008     3.2833    -3.7397 C.ar    
  18 C18           -5.8322     4.1549    -3.8374 C.ar    
  19 C19           -5.0242     4.3836    -2.7393 C.ar    
  20 C20           -5.2871     3.7438    -1.5425 C.ar    
  21 C21           -5.5478     4.8552    -5.1411 C.3     
  22 C22           -6.7562     5.7061    -5.5371 C.3     
  23 C23           -4.3212     5.7553    -4.9795 C.3     
  24 C24           -5.2774     3.8153    -6.2303 C.3     
  25 H25            0.9466    -0.5276    -0.0098 H       
  26 H26           -1.1563    -1.7995     0.0023 H       
  27 H27           -1.2263     3.1436     0.0371 H       
  28 H28           -6.3171    -0.2218     0.0612 H       
  29 H29           -7.9959     1.9593    -2.4677 H       
  30 H30           -7.5320     3.1046    -4.5976 H       
  31 H31           -4.1892     5.0643    -2.8157 H       
  32 H32           -4.6559     3.9226    -0.6846 H       
  33 H33           -6.9488     6.4469    -4.7612 H       
  34 H34           -6.5505     6.2126    -6.4801 H       
  35 H35           -7.6300     5.0648    -5.6522 H       
  36 H36           -3.4603     5.1491    -4.6974 H       
  37 H37           -4.1155     6.2618    -5.9225 H       
  38 H38           -4.5139     6.4962    -4.2036 H       
  39 H39           -6.1513     3.1740    -6.3454 H       
  40 H40           -5.0717     4.3218    -7.1732 H       
  41 H41           -4.4165     3.2091    -5.9481 H       
@<TRIPOS>BOND
   1    1    2 ar
   2    1   10 1
   3    1    6 ar
   4    2    3 ar
   5    2   25 1
   6    3    4 ar
   7    3   26 1
   8    4    5 ar
   9    4    7 1
  10    5    6 ar
  11    5    9 1
  12    6   27 1
  13    7    8 1
  14    8    9 2
  15    8   11 1
  16   11   12 am
  17   11   28 1
  18   12   13 2
  19   12   14 2
  20   12   15 1
  21   15   16 ar
  22   15   20 ar
  23   16   17 ar
  24   16   29 1
  25   17   18 ar
  26   17   30 1
  27   18   19 ar
  28   18   21 1
  29   19   20 ar
  30   19   31 1
  31   20   32 1
  32   21   22 1
  33   21   23 1
  34   21   24 1
  35   22   33 1
  36   22   34 1
  37   22   35 1
  38   23   36 1
  39   23   37 1
  40   23   38 1
  41   24   39 1
  42   24   40 1
  43   24   41 1

#	End of record

