#	Name: ASD02500039
#	Creating user name:	WinNT
#	Creation time:	15. 06. 2019 20:22

#	Modifying user name:	WinNT
#	Modification time:	15. 06. 2019 20:22

#	Program:	/corina/corina34_cracker 3.40 0067  02.08.2006

@<TRIPOS>MOLECULE
ASD02500039
  61   65    0    0    0
SMALL
NO_CHARGES


@<TRIPOS>ATOM
   1 C1            -0.1344     3.9688     1.9609 C.ar    
   2 C2            -0.4723     2.7352     2.4894 C.ar    
   3 C3             0.4868     1.7417     2.5957 C.ar    
   4 C4             1.7808     1.9820     2.1747 C.ar    
   5 C5             2.1195     3.2138     1.6467 C.ar    
   6 C6             1.1623     4.2083     1.5390 C.ar    
   7 N7             3.5806     3.4545    -0.2799 N.3     
   8 C8             4.8795     3.9354    -0.7695 C.3     
   9 C9             4.9580     3.7299    -2.2860 C.3     
  10 N10            3.7856     4.3667    -2.9050 N.am    
  11 C11            2.4538     4.0377    -2.3745 C.3     
  12 C12            2.4739     4.2311    -0.8545 C.3     
  13 C13            3.9278     5.2292    -3.9309 C.2     
  14 O14            5.0386     5.5741    -4.2856 O.2     
  15 C15            2.7360     5.7548    -4.6234 C.ar    
  16 C16            2.7077     7.0829    -5.0588 C.ar    
  17 C17            1.5944     7.5702    -5.7044 C.ar    
  18 C18            0.4971     6.7421    -5.9241 C.ar    
  19 C19            0.5222     5.4190    -5.4917 C.ar    
  20 C20            1.6348     4.9241    -4.8506 C.ar    
  21 N21           -0.6264     7.2376    -6.5764 N.am    
  22 S22           -1.3313     6.3620    -7.7925 S.o2    
  23 O23           -2.3672     7.1762    -8.3246 O.2     
  24 C24           -0.1314     6.1848    -9.0706 C.ar    
  25 C25            0.3336     7.3160    -9.7634 C.ar    
  26 C26            1.2988     7.1481   -10.7873 C.ar    
  27 C27            1.7719     5.8615   -11.0906 C.ar    
  28 C28            1.2980     4.7896   -10.3974 C.ar    
  29 C29            0.3527     4.9528    -9.3871 C.ar    
  30 O30           -1.5568     5.0597    -7.2705 O.2     
  31 N31           -0.1200     8.5390    -9.4709 N.ar    
  32 C32            0.3100     9.5971   -10.1141 C.ar    
  33 C33            1.2578     9.5021   -11.1311 C.ar    
  34 C34            1.7633     8.2823   -11.4799 C.ar    
  35 F35            1.4935     5.4121     1.0229 F       
  36 F36           -1.7372     2.5002     2.9018 F       
  37 C37            3.5312     3.4744     1.1881 C.3     
  38 H38           -0.8827     4.7426     1.8735 H       
  39 H39            0.2233     0.7790     3.0081 H       
  40 H40            2.5283     1.2070     2.2587 H       
  41 H41            4.9847     4.9958    -0.5401 H       
  42 H42            5.6803     3.3769    -0.2848 H       
  43 H43            5.8692     4.1878    -2.6708 H       
  44 H44            4.9572     2.6635    -2.5115 H       
  45 H45            1.7094     4.6991    -2.8179 H       
  46 H46            2.2123     3.0009    -2.6086 H       
  47 H47            1.5301     3.8870    -0.4315 H       
  48 H48            2.6126     5.2874    -0.6240 H       
  49 H49            3.5585     7.7259    -4.8883 H       
  50 H50            1.5718     8.5963    -6.0407 H       
  51 H51           -0.3307     4.7791    -5.6633 H       
  52 H52            1.6538     3.8975    -4.5157 H       
  53 H53           -0.9974     8.0961    -6.3191 H       
  54 H54            2.5071     5.7228   -11.8694 H       
  55 H55            1.6626     3.8002   -10.6313 H       
  56 H56           -0.0073     4.0868    -8.8514 H       
  57 H57           -0.0809    10.5684    -9.8490 H       
  58 H58            1.5923    10.3923   -11.6430 H       
  59 H59            2.4987     8.1903   -12.2655 H       
  60 H60            3.8564     4.4499     1.5495 H       
  61 H61            4.1903     2.7019     1.5843 H       
@<TRIPOS>BOND
   1    1    2 ar
   2    1    6 ar
   3    1   38 1
   4    2    3 ar
   5    2   36 1
   6    3    4 ar
   7    3   39 1
   8    4    5 ar
   9    4   40 1
  10    5    6 ar
  11    5   37 1
  12    6   35 1
  13    7    8 1
  14    7   37 1
  15    7   12 1
  16    8    9 1
  17    8   41 1
  18    8   42 1
  19    9   10 1
  20    9   43 1
  21    9   44 1
  22   10   11 1
  23   10   13 am
  24   11   12 1
  25   11   45 1
  26   11   46 1
  27   12   47 1
  28   12   48 1
  29   13   14 2
  30   13   15 1
  31   15   16 ar
  32   15   20 ar
  33   16   17 ar
  34   16   49 1
  35   17   18 ar
  36   17   50 1
  37   18   19 ar
  38   18   21 1
  39   19   20 ar
  40   19   51 1
  41   20   52 1
  42   21   22 am
  43   21   53 1
  44   22   23 2
  45   22   24 1
  46   22   30 2
  47   24   25 ar
  48   24   29 ar
  49   25   26 ar
  50   25   31 ar
  51   26   27 ar
  52   26   34 ar
  53   27   28 ar
  54   27   54 1
  55   28   29 ar
  56   28   55 1
  57   29   56 1
  58   31   32 ar
  59   32   33 ar
  60   32   57 1
  61   33   34 ar
  62   33   58 1
  63   34   59 1
  64   37   60 1
  65   37   61 1

#	End of record

