#	Name: ASD01478108
#	Creating user name:	WinNT
#	Creation time:	15. 06. 2019 19:21

#	Modifying user name:	WinNT
#	Modification time:	15. 06. 2019 19:21

#	Program:	/corina/corina34_cracker 3.40 0067  02.08.2006

@<TRIPOS>MOLECULE
ASD01478108
  57   60    0    0    0
SMALL
NO_CHARGES


@<TRIPOS>ATOM
   1 C1             2.2366     2.6463    -1.6740 C.3     
   2 C2             2.3654     1.1650    -2.0818 C.3     
   3 C3             2.8511     0.4475    -0.8132 C.3     
   4 C4             3.5545     1.5168     0.0445 C.3     
   5 C5             3.4670     2.8402    -0.7448 C.3     
   6 C6            -0.1411     2.3392    -1.4408 C.3     
   7 C7             0.0185     0.8328    -1.6796 C.3     
   8 O8             1.0696     2.8362    -0.8701 O.3     
   9 O9             1.1380     0.6343    -2.5460 O.3     
  10 O10            2.8891     1.6516     1.3020 O.3     
  11 Si11           3.8957     1.8905     2.5629 Si      
  12 C12            5.0574     3.3006     2.1737 C.ar    
  13 C13            5.0854     4.4177     2.9875 C.ar    
  14 C14            5.9451     5.4612     2.6995 C.ar    
  15 C15            6.7770     5.3875     1.5980 C.ar    
  16 C16            6.7497     4.2700     0.7847 C.ar    
  17 C17            5.8931     3.2246     1.0752 C.ar    
  18 C18            2.8978     2.3080     4.0858 C.ar    
  19 C19            2.4429     3.5986     4.2817 C.ar    
  20 C20            1.7045     3.9076     5.4087 C.ar    
  21 C21            1.4206     2.9259     6.3396 C.ar    
  22 C22            1.8746     1.6351     6.1432 C.ar    
  23 C23            2.6094     1.3252     5.0141 C.ar    
  24 C24            4.8821     0.3407     2.8724 C.3     
  25 C25            6.0012     0.2327     1.8348 C.3     
  26 C26            5.4906     0.3950     4.2751 C.3     
  27 C27            3.9644    -0.8786     2.7615 C.3     
  28 H28            2.2616     3.3131    -2.5359 H       
  29 H29            3.1152     1.0663    -2.8668 H       
  30 H30            2.0027     0.0307    -0.2706 H       
  31 H31            3.5536    -0.3434    -1.0759 H       
  32 H32            4.5980     1.2433     0.2009 H       
  33 H33            4.3706     2.9933    -1.3349 H       
  34 H34            3.3055     3.6788    -0.0675 H       
  35 H35           -0.3340     2.8426    -2.3883 H       
  36 H36           -0.9698     2.5164    -0.7553 H       
  37 H37            0.1937     0.3265    -0.7303 H       
  38 H38           -0.8831     0.4370    -2.1471 H       
  39 H39            4.4354     4.4754     3.8481 H       
  40 H40            5.9665     6.3343     3.3348 H       
  41 H41            7.4482     6.2030     1.3726 H       
  42 H42            7.3994     4.2125    -0.0760 H       
  43 H43            5.8743     2.3499     0.4420 H       
  44 H44            2.6648     4.3656     3.5544 H       
  45 H45            1.3497     4.9161     5.5621 H       
  46 H46            0.8443     3.1675     7.2204 H       
  47 H47            1.6531     0.8682     6.8707 H       
  48 H48            2.9610     0.3159     4.8588 H       
  49 H49            6.5804     1.1561     1.8276 H       
  50 H50            6.6531    -0.6031     2.0892 H       
  51 H51            5.5676     0.0680     0.8484 H       
  52 H52            4.6932     0.3762     5.0181 H       
  53 H53            6.1439    -0.4651     4.4214 H       
  54 H54            6.0682     1.3129     4.3853 H       
  55 H55            3.6060    -0.9715     1.7363 H       
  56 H56            4.5184    -1.7764     3.0355 H       
  57 H57            3.1151    -0.7564     3.4337 H       
@<TRIPOS>BOND
   1    1    2 1
   2    1    5 1
   3    1    8 1
   4    1   28 1
   5    2    3 1
   6    2    9 1
   7    2   29 1
   8    3    4 1
   9    3   30 1
  10    3   31 1
  11    4    5 1
  12    4   10 1
  13    4   32 1
  14    5   33 1
  15    5   34 1
  16    6    7 1
  17    6    8 1
  18    6   35 1
  19    6   36 1
  20    7    9 1
  21    7   37 1
  22    7   38 1
  23   10   11 1
  24   11   12 1
  25   11   18 1
  26   11   24 1
  27   12   13 ar
  28   12   17 ar
  29   13   14 ar
  30   13   39 1
  31   14   15 ar
  32   14   40 1
  33   15   16 ar
  34   15   41 1
  35   16   17 ar
  36   16   42 1
  37   17   43 1
  38   18   19 ar
  39   18   23 ar
  40   19   20 ar
  41   19   44 1
  42   20   21 ar
  43   20   45 1
  44   21   22 ar
  45   21   46 1
  46   22   23 ar
  47   22   47 1
  48   23   48 1
  49   24   25 1
  50   24   27 1
  51   24   26 1
  52   25   49 1
  53   25   50 1
  54   25   51 1
  55   26   52 1
  56   26   53 1
  57   26   54 1
  58   27   55 1
  59   27   56 1
  60   27   57 1

#	End of record

