#	Name: ASD03091796
#	Creating user name:	WinNT
#	Creation time:	15. 06. 2019 20:31

#	Modifying user name:	WinNT
#	Modification time:	15. 06. 2019 20:31

#	Program:	/corina/corina34_cracker 3.40 0067  02.08.2006

@<TRIPOS>MOLECULE
ASD03091796
  35   37    0    0    0
SMALL
NO_CHARGES


@<TRIPOS>ATOM
   1 C1             1.4908     3.7776    -0.0310 C.3     
   2 C2             0.5948     2.6569    -0.5623 C.3     
   3 N3             0.4785     1.5997     0.4503 N.3     
   4 C4            -0.1467     2.1078     1.6780 C.3     
   5 C5             0.7262     3.2121     2.2778 C.3     
   6 C6             2.1079     2.6403     2.6129 C.3     
   7 N7             2.7663     2.2340     1.3638 N.am    
   8 C8             2.8822     3.2127     0.2742 C.3     
   9 C9             3.2546     0.9861     1.2201 C.2     
  10 O10            3.2184     0.2077     2.1537 O.2     
  11 C11            3.8325     0.5649    -0.0685 C.2     
  12 C12            3.2223     0.6917    -1.4001 C.2     
  13 C13            0.8851     4.3430     1.2572 C.3     
  14 C14            5.0480    -0.0188    -0.2757 C.2     
  15 O15            5.1908    -0.2422    -1.5857 O.3     
  16 C16            4.1108     0.1766    -2.2636 C.2     
  17 C17            6.0583    -0.3541     0.7910 C.3     
  18 H18            1.5726     4.5657    -0.7795 H       
  19 H19           -0.3944     3.0572    -0.7845 H       
  20 H20            1.0314     2.2429    -1.4711 H       
  21 H21           -0.0286     0.8061     0.0879 H       
  22 H22           -1.1320     2.5107     1.4437 H       
  23 H23           -0.2486     1.2948     2.3968 H       
  24 H24            0.2591     3.5943     3.1855 H       
  25 H25            2.7076     3.4020     3.1112 H       
  26 H26            1.9967     1.7746     3.2658 H       
  27 H27            3.2813     2.7243    -0.6148 H       
  28 H28            3.5463     4.0216     0.5786 H       
  29 H29            2.2562     1.1134    -1.6352 H       
  30 H30            1.5444     5.1101     1.6635 H       
  31 H31           -0.0907     4.7778     1.0406 H       
  32 H32            3.9778     0.1092    -3.3332 H       
  33 H33            5.8752    -1.3631     1.1605 H       
  34 H34            7.0625    -0.2975     0.3710 H       
  35 H35            5.9678     0.3559     1.6131 H       
@<TRIPOS>BOND
   1    1    2 1
   2    1    8 1
   3    1   13 1
   4    1   18 1
   5    2    3 1
   6    2   19 1
   7    2   20 1
   8    3    4 1
   9    3   21 1
  10    4    5 1
  11    4   22 1
  12    4   23 1
  13    5    6 1
  14    5   13 1
  15    5   24 1
  16    6    7 1
  17    6   25 1
  18    6   26 1
  19    7    8 1
  20    7    9 am
  21    8   27 1
  22    8   28 1
  23    9   10 2
  24    9   11 1
  25   11   12 1
  26   11   14 2
  27   12   16 2
  28   12   29 1
  29   13   30 1
  30   13   31 1
  31   14   15 1
  32   14   17 1
  33   15   16 1
  34   16   32 1
  35   17   33 1
  36   17   34 1
  37   17   35 1

#	End of record

