#	Name: ASD01911201
#	Creating user name:	WinNT
#	Creation time:	15. 06. 2019 19:57

#	Modifying user name:	WinNT
#	Modification time:	15. 06. 2019 19:57

#	Program:	/corina/corina34_cracker 3.40 0067  02.08.2006

@<TRIPOS>MOLECULE
ASD01911201
  54   56    0    0    0
SMALL
NO_CHARGES


@<TRIPOS>ATOM
   1 C1            -5.1140    -9.5529    -0.9067 C.ar    
   2 N2            -4.9570    -8.4881    -0.1511 N.ar    
   3 C3            -5.9591    -7.9842     0.5590 C.ar    
   4 C4            -7.2196    -8.5758     0.5238 C.ar    
   5 C5            -7.4142    -9.6996    -0.2643 C.ar    
   6 C6            -6.3409   -10.1923    -0.9896 C.ar    
   7 C7            -5.7348    -6.7828     1.3960 C.2     
   8 N8            -4.5173    -6.2061     1.4346 N.am    
   9 C9            -4.3360    -5.0001     2.1197 C.ar    
  10 C10           -3.4778    -4.0338     1.6117 C.ar    
  11 C11           -3.3010    -2.8436     2.2900 C.ar    
  12 C12           -3.9781    -2.6138     3.4746 C.ar    
  13 C13           -4.8337    -3.5755     3.9833 C.ar    
  14 C14           -5.0185    -4.7647     3.3064 C.ar    
  15 C15           -2.7396    -4.2836     0.3218 C.3     
  16 N16           -3.3580    -3.5042    -0.7535 N.am    
  17 O17           -6.6486    -6.3173     2.0481 O.2     
  18 Cl18          -3.7536    -1.1169     4.3245 Cl      
  19 C19           -4.3887    -4.0196    -1.4524 C.2     
  20 C20           -4.9913    -3.2465    -2.5593 C.ar    
  21 C21           -6.3620    -3.3309    -2.8078 C.ar    
  22 C22           -6.9190    -2.6066    -3.8431 C.ar    
  23 C23           -6.1205    -1.7983    -4.6342 C.ar    
  24 C24           -4.7600    -1.7108    -4.3929 C.ar    
  25 C25           -4.1926    -2.4252    -3.3563 C.ar    
  26 O26           -4.8229    -5.1199    -1.1726 O.2     
  27 C27           -2.8559    -2.1646    -1.0692 C.3     
  28 Cl28          -3.7667    -0.6955    -5.3909 Cl      
  29 C29           -1.5670    -2.2823    -1.8852 C.3     
  30 C30           -1.1192    -0.8901    -2.3349 C.3     
  31 C31           -0.4735    -2.9158    -1.0227 C.3     
  32 Cl32          -8.6239    -2.7103    -4.1538 Cl      
  33 H33           -4.2766    -9.9316    -1.4739 H       
  34 H34           -8.0337    -8.1651     1.1025 H       
  35 H35           -8.3801   -10.1802    -0.3119 H       
  36 H36           -6.4595   -11.0659    -1.6134 H       
  37 H37           -3.7667    -6.6273     0.9872 H       
  38 H38           -2.6334    -2.0919     1.8956 H       
  39 H39           -5.3605    -3.3938     4.9085 H       
  40 H40           -5.6866    -5.5146     3.7036 H       
  41 H41           -1.6979    -3.9834     0.4354 H       
  42 H42           -2.7873    -5.3443     0.0755 H       
  43 H43           -6.9858    -3.9617    -2.1918 H       
  44 H44           -6.5606    -1.2339    -5.4430 H       
  45 H45           -3.1312    -2.3559    -3.1687 H       
  46 H46           -3.6042    -1.6232    -1.6481 H       
  47 H47           -2.6523    -1.6255    -0.1440 H       
  48 H48           -1.7467    -2.9065    -2.7604 H       
  49 H49           -0.9395    -0.2658    -1.4596 H       
  50 H50           -0.2009    -0.9739    -2.9162 H       
  51 H51           -1.8982    -0.4387    -2.9493 H       
  52 H52           -0.7358    -3.9514    -0.8063 H       
  53 H53            0.4751    -2.8858    -1.5588 H       
  54 H54           -0.3807    -2.3617    -0.0887 H       
@<TRIPOS>BOND
   1    1    2 ar
   2    1    6 ar
   3    1   33 1
   4    2    3 ar
   5    3    4 ar
   6    3    7 1
   7    4    5 ar
   8    4   34 1
   9    5    6 ar
  10    5   35 1
  11    6   36 1
  12    7    8 am
  13    7   17 2
  14    8    9 1
  15    8   37 1
  16    9   10 ar
  17    9   14 ar
  18   10   11 ar
  19   10   15 1
  20   11   12 ar
  21   11   38 1
  22   12   13 ar
  23   12   18 1
  24   13   14 ar
  25   13   39 1
  26   14   40 1
  27   15   16 1
  28   15   41 1
  29   15   42 1
  30   16   19 am
  31   16   27 1
  32   19   20 1
  33   19   26 2
  34   20   21 ar
  35   20   25 ar
  36   21   22 ar
  37   21   43 1
  38   22   23 ar
  39   22   32 1
  40   23   24 ar
  41   23   44 1
  42   24   25 ar
  43   24   28 1
  44   25   45 1
  45   27   29 1
  46   27   46 1
  47   27   47 1
  48   29   30 1
  49   29   31 1
  50   29   48 1
  51   30   49 1
  52   30   50 1
  53   30   51 1
  54   31   52 1
  55   31   53 1
  56   31   54 1

#	End of record

