#	Name: ASD01580002
#	Creating user name:	WinNT
#	Creation time:	15. 06. 2019 19:22

#	Modifying user name:	WinNT
#	Modification time:	15. 06. 2019 19:22

#	Program:	/corina/corina34_cracker 3.40 0067  02.08.2006

@<TRIPOS>MOLECULE
ASD01580002
  23   23    0    0    0
SMALL
NO_CHARGES


@<TRIPOS>ATOM
   1 C1            -0.0184     1.5028     0.0103 C.2     
   2 C2             0.0021    -0.0041     0.0020 C.3     
   3 C3            -0.2279    -0.5251     1.4221 C.3     
   4 O4             1.0197     2.1211     0.0037 O.2     
   5 O5            -1.1898     2.1580     0.0194 O.3     
   6 C6            -1.1201    -4.0685     1.3275 C.2     
   7 N7             0.1813    -4.1423     1.3903 N.2     
   8 C8             0.6931    -2.9032     1.4330 C.2     
   9 C9            -0.3300    -2.0284     1.3953 C.2     
  10 N10           -1.4804    -2.7670     1.3283 N.pl3   
  11 N11            1.3055    -0.4734    -0.4867 N.3     
  12 C12           -1.1335     3.6089     0.0270 C.3     
  13 H13           -0.7864    -0.3745    -0.6531 H       
  14 H14            0.6068    -0.2288     2.0574 H       
  15 H15           -1.1526    -0.1051     1.8179 H       
  16 H16           -1.7966    -4.9089     1.2783 H       
  17 H17            1.7419    -2.6513     1.4884 H       
  18 H18           -2.3855    -2.4204     1.2888 H       
  19 H19            1.4531    -0.1967    -1.4457 H       
  20 H20            2.0536    -0.1430     0.1043 H       
  21 H21           -2.1463     4.0118     0.0340 H       
  22 H22           -0.6017     3.9472     0.9164 H       
  23 H23           -0.6102     3.9569    -0.8636 H       
@<TRIPOS>BOND
   1    1    2 1
   2    1    4 2
   3    1    5 1
   4    2    3 1
   5    2   11 1
   6    2   13 1
   7    3    9 1
   8    3   14 1
   9    3   15 1
  10    5   12 1
  11    6    7 2
  12    6   10 1
  13    6   16 1
  14    7    8 1
  15    8    9 2
  16    8   17 1
  17    9   10 1
  18   10   18 1
  19   11   19 1
  20   11   20 1
  21   12   21 1
  22   12   22 1
  23   12   23 1

#	End of record

