#	Name: ASD01810389
#	Creating user name:	WinNT
#	Creation time:	15. 06. 2019 19:24

#	Modifying user name:	WinNT
#	Modification time:	15. 06. 2019 19:24

#	Program:	/corina/corina34_cracker 3.40 0067  02.08.2006

@<TRIPOS>MOLECULE
ASD01810389
  51   54    0    0    0
SMALL
NO_CHARGES


@<TRIPOS>ATOM
   1 C1             7.4003     1.1063    -0.6074 C.ar    
   2 C2             7.2777    -0.2760    -0.6029 C.ar    
   3 C3             6.0487    -0.8733    -0.4160 C.ar    
   4 C4             4.9131    -0.0851    -0.2291 C.ar    
   5 C5             5.0419     1.3134    -0.2344 C.ar    
   6 C6             6.2921     1.9030    -0.4247 C.ar    
   7 N7             3.6783    -0.6691    -0.0417 N.pl3   
   8 C8             2.5592     0.0427     0.1409 C.2     
   9 C9             2.5599     1.4232     0.1555 C.2     
  10 C10            3.8335     2.1354    -0.0357 C.2     
  11 O11            3.8873     3.3528    -0.0308 O.2     
  12 C12            1.3097     2.1689     0.3579 C.2     
  13 C13            3.5868    -2.1313    -0.0430 C.3     
  14 C14            3.4415    -2.6319    -1.4814 C.3     
  15 C15            3.4219    -4.1630    -1.4908 C.3     
  16 C16            3.2153    -4.6569    -2.9245 C.3     
  17 N17            1.9482    -4.1300    -3.4472 N.3     
  18 C18            1.9616    -2.6623    -3.4921 C.3     
  19 C19            2.1307    -2.1089    -2.0753 C.3     
  20 C20            1.6649    -4.6648    -4.7006 C.ar    
  21 O21            0.2633     1.5702     0.5144 O.2     
  22 O22            1.3233     3.5168     0.3701 O.3     
  23 C23            2.5413    -5.5774    -5.2804 C.ar    
  24 F24            5.9447    -2.2203    -0.4145 F       
  25 C25            0.5029    -4.2901    -5.3689 C.ar    
  26 C26            0.2192    -4.8178    -6.6082 C.ar    
  27 C27            1.1001    -5.7307    -7.1958 C.ar    
  28 C28            2.2640    -6.1085    -6.5196 C.ar    
  29 O29            4.5420    -2.1637    -2.2635 O.3     
  30 C30            0.8082    -6.2816    -8.4849 C.1     
  31 N31            0.5766    -6.7186    -9.5076 N.1     
  32 H32            8.3702     1.5594    -0.7505 H       
  33 H33            8.1539    -0.8906    -0.7475 H       
  34 H34            6.3901     2.9785    -0.4286 H       
  35 H35            1.6249    -0.4804     0.2811 H       
  36 H36            4.4901    -2.5522     0.3987 H       
  37 H37            2.7191    -2.4415     0.5391 H       
  38 H38            4.3699    -4.5414    -1.1086 H       
  39 H39            2.6066    -4.5203    -0.8617 H       
  40 H40            4.0381    -4.3107    -3.5499 H       
  41 H41            3.1865    -5.7465    -2.9326 H       
  42 H42            2.7903    -2.3255    -4.1149 H       
  43 H43            1.0222    -2.3032    -3.9125 H       
  44 H44            1.2951    -2.4339    -1.4555 H       
  45 H45            2.1563    -1.0198    -2.1107 H       
  46 H46            0.4765     3.9632     0.5067 H       
  47 H47            3.4402    -5.8688    -4.7575 H       
  48 H48           -0.1771    -3.5849    -4.9144 H       
  49 H49           -0.6829    -4.5271    -7.1259 H       
  50 H50            2.9468    -6.8133    -6.9708 H       
  51 H51            4.6146    -1.2002    -2.3032 H       
@<TRIPOS>BOND
   1    1    2 ar
   2    1    6 ar
   3    1   32 1
   4    2    3 ar
   5    2   33 1
   6    3    4 ar
   7    3   24 1
   8    4    5 ar
   9    4    7 1
  10    5    6 ar
  11    5   10 1
  12    6   34 1
  13    7    8 1
  14    7   13 1
  15    8    9 2
  16    8   35 1
  17    9   10 1
  18    9   12 1
  19   10   11 2
  20   12   21 2
  21   12   22 1
  22   13   14 1
  23   13   36 1
  24   13   37 1
  25   14   15 1
  26   14   29 1
  27   14   19 1
  28   15   16 1
  29   15   38 1
  30   15   39 1
  31   16   17 1
  32   16   40 1
  33   16   41 1
  34   17   18 1
  35   17   20 1
  36   18   19 1
  37   18   42 1
  38   18   43 1
  39   19   44 1
  40   19   45 1
  41   20   25 ar
  42   20   23 ar
  43   22   46 1
  44   23   28 ar
  45   23   47 1
  46   25   26 ar
  47   25   48 1
  48   26   27 ar
  49   26   49 1
  50   27   30 1
  51   27   28 ar
  52   28   50 1
  53   29   51 1
  54   30   31 3

#	End of record

