#	Name: ASD03331554
#	Creating user name:	WinNT
#	Creation time:	15. 06. 2019 20:39

#	Modifying user name:	WinNT
#	Modification time:	15. 06. 2019 20:39

#	Program:	/corina/corina34_cracker 3.40 0067  02.08.2006

@<TRIPOS>MOLECULE
ASD03331554
  56   58    0    0    0
SMALL
NO_CHARGES


@<TRIPOS>ATOM
   1 C1             0.3771     0.7946    -1.5357 C.ar    
   2 C2             0.5957    -0.5776    -1.6598 C.ar    
   3 C3             1.4987     1.6967    -1.1940 C.2     
   4 N4             1.5294     3.0439    -1.4079 N.pl3   
   5 C5             2.7411     3.4935    -0.9780 C.2     
   6 C6             3.4165     2.4218    -0.4839 C.2     
   7 N7             2.6269     1.3348    -0.6297 N.2     
   8 C8             0.4613     3.8733    -1.9713 C.3     
   9 C9             1.0756     5.1068    -2.6379 C.3     
  10 O10            1.2287     6.1533    -1.6774 O.3     
  11 C11            2.0921     5.8437    -0.5870 C.3     
  12 C12            3.2143     4.9200    -1.0722 C.3     
  13 C13            4.7653     2.4427     0.1092 C.2     
  14 O14            5.3780     3.4903     0.1896 O.2     
  15 N15            5.3199     1.3011     0.5625 N.am    
  16 C16            6.7013     1.3012     1.0505 C.3     
  17 C17            7.2565    -0.0983     0.9873 C.2     
  18 N18            8.5789    -0.3064     1.1432 N.am    
  19 O19            6.5133    -1.0375     0.7962 O.2     
  20 C20            6.7308     1.7967     2.4978 C.3     
  21 C21            8.1770     1.8296     2.9962 C.3     
  22 C22            9.1096    -1.6718     1.1524 C.3     
  23 C23           -0.4551    -1.4153    -1.9795 C.ar    
  24 C24           -1.7255    -0.8928    -2.1769 C.ar    
  25 C25           -1.9456     0.4695    -2.0548 C.ar    
  26 C26           -0.9016     1.3144    -1.7407 C.ar    
  27 F27           -2.7507    -1.7152    -2.4894 F       
  28 F28           -0.2458    -2.7445    -2.1006 F       
  29 C29            8.9603     2.8894     2.2189 C.3     
  30 C30            8.1950     2.1734     4.4869 C.3     
  31 H31            1.5845    -0.9842    -1.5065 H       
  32 H32           -0.0937     3.2979    -2.7122 H       
  33 H33           -0.2131     4.1881    -1.1749 H       
  34 H34            2.0510     4.8477    -3.0496 H       
  35 H35            0.4231     5.4463    -3.4423 H       
  36 H36            2.5236     6.7636    -0.1925 H       
  37 H37            1.5230     5.3436     0.1967 H       
  38 H38            4.0956     5.0549    -0.4452 H       
  39 H39            3.4600     5.1560    -2.1076 H       
  40 H40            4.8045     0.4794     0.5656 H       
  41 H41            7.3064     1.9606     0.4283 H       
  42 H42            9.1794     0.4480     1.2492 H       
  43 H43            6.3066     2.7996     2.5472 H       
  44 H44            6.1458     1.1235     3.1243 H       
  45 H45            8.6364     0.8531     2.8429 H       
  46 H46           10.1906    -1.6406     1.2882 H       
  47 H47            8.6567    -2.2321     1.9704 H       
  48 H48            8.8762    -2.1587     0.2056 H       
  49 H49           -2.9360     0.8714    -2.2101 H       
  50 H50           -1.0752     2.3761    -1.6456 H       
  51 H51            8.5468     3.8753     2.4313 H       
  52 H52           10.0072     2.8617     2.5210 H       
  53 H53            8.8849     2.6863     1.1507 H       
  54 H54            7.6369     1.4183     5.0407 H       
  55 H55            9.2252     2.1968     4.8420 H       
  56 H56            7.7355     3.1499     4.6402 H       
@<TRIPOS>BOND
   1    1    2 ar
   2    1    3 1
   3    1   26 ar
   4    2   23 ar
   5    2   31 1
   6    3    4 1
   7    3    7 2
   8    4    5 1
   9    4    8 1
  10    5    6 2
  11    5   12 1
  12    6    7 1
  13    6   13 1
  14    8    9 1
  15    8   32 1
  16    8   33 1
  17    9   10 1
  18    9   34 1
  19    9   35 1
  20   10   11 1
  21   11   12 1
  22   11   36 1
  23   11   37 1
  24   12   38 1
  25   12   39 1
  26   13   14 2
  27   13   15 am
  28   15   16 1
  29   15   40 1
  30   16   20 1
  31   16   17 1
  32   16   41 1
  33   17   18 am
  34   17   19 2
  35   18   22 1
  36   18   42 1
  37   20   21 1
  38   20   43 1
  39   20   44 1
  40   21   29 1
  41   21   30 1
  42   21   45 1
  43   22   46 1
  44   22   47 1
  45   22   48 1
  46   23   24 ar
  47   23   28 1
  48   24   25 ar
  49   24   27 1
  50   25   26 ar
  51   25   49 1
  52   26   50 1
  53   29   51 1
  54   29   52 1
  55   29   53 1
  56   30   54 1
  57   30   55 1
  58   30   56 1

#	End of record

