#	Name: ASD01882321
#	Creating user name:	WinNT
#	Creation time:	15. 06. 2019 19:44

#	Modifying user name:	WinNT
#	Modification time:	15. 06. 2019 19:44

#	Program:	/corina/corina34_cracker 3.40 0067  02.08.2006

@<TRIPOS>MOLECULE
ASD01882321
  60   65    0    0    0
SMALL
NO_CHARGES


@<TRIPOS>ATOM
   1 C1            -0.3600     1.3076     0.4718 C.3     
   2 O2             0.0914    -0.0256     0.7593 O.3     
   3 C3             1.3925    -0.1148     0.1485 C.3     
   4 C4             1.9473     1.2907     0.1446 C.ar    
   5 C5             3.2231     1.7919    -0.0106 C.ar    
   6 C6             3.4382     3.1573     0.0319 C.ar    
   7 C7             2.3754     4.0192     0.2298 C.ar    
   8 C8             1.0963     3.5171     0.3847 C.ar    
   9 C9             0.8809     2.1550     0.3416 C.ar    
  10 N10           -3.1388     0.8136     0.4743 N.pl3   
  11 C11           -2.3662     0.4021    -0.7057 C.3     
  12 C12           -1.1448     1.3181    -0.8388 C.3     
  13 C13           -1.2313     1.8194     1.6170 C.3     
  14 C14           -2.4541     0.9087     1.7707 C.3     
  15 C15            2.2976    -1.0364     0.9685 C.3     
  16 C16            1.2676    -0.6362    -1.2845 C.3     
  17 C17           -6.7946     0.5231     0.6635 C.2     
  18 C18           -5.4316     0.2024     0.7828 C.2     
  19 C19           -4.4945     1.1082     0.3658 C.2     
  20 C20           -4.9120     2.3441    -0.1747 C.2     
  21 C21           -6.2242     2.6308    -0.2798 C.2     
  22 N22           -7.1665     1.7345     0.1330 N.pl3   
  23 N23           -8.9255     0.6074     0.6581 N.2     
  24 N24           -7.9111    -0.1232     0.9626 N.2     
  25 C25           -8.5304     1.7449     0.1503 C.2     
  26 C26           -5.0073    -1.1221     1.3631 C.3     
  27 F27           -4.6685    -0.9541     2.7100 F       
  28 F28           -6.0610    -2.0364     1.2578 F       
  29 F29           -3.8986    -1.6055     0.6601 F       
  30 C30           -9.4192     2.8632    -0.3298 C.3     
  31 C31           -9.7412     2.6585    -1.8114 C.3     
  32 C32          -10.7305     3.6288    -2.4600 C.3     
  33 C33           -9.2405     3.7172    -2.7960 C.3     
  34 H34            4.0533     1.1185    -0.1647 H       
  35 H35            4.4368     3.5504    -0.0893 H       
  36 H36            2.5444     5.0854     0.2638 H       
  37 H37            0.2664     4.1907     0.5389 H       
  38 H38           -2.0375    -0.6302    -0.5856 H       
  39 H39           -2.9869     0.4889    -1.5974 H       
  40 H40           -1.4740     2.3339    -1.0575 H       
  41 H41           -0.5076     0.9597    -1.6472 H       
  42 H42           -0.6554     1.8144     2.5424 H       
  43 H43           -1.5597     2.8354     1.3981 H       
  44 H44           -3.1327     1.3302     2.5123 H       
  45 H45           -2.1331    -0.0834     2.0882 H       
  46 H46            1.8690    -2.0383     0.9936 H       
  47 H47            3.2863    -1.0756     0.5112 H       
  48 H48            2.3824    -0.6520     1.9849 H       
  49 H49            0.7939     0.1228    -1.9072 H       
  50 H50            2.2592    -0.8612    -1.6770 H       
  51 H51            0.6605    -1.5415    -1.2901 H       
  52 H52           -4.1764     3.0626    -0.5049 H       
  53 H53           -6.5331     3.5789    -0.6947 H       
  54 H54          -10.3445     2.8647     0.2463 H       
  55 H55           -8.9073     3.8164    -0.1975 H       
  56 H56           -9.7565     1.6227    -2.1504 H       
  57 H57          -11.3965     3.2314    -3.2260 H       
  58 H58          -11.1520     4.4130    -1.8311 H       
  59 H59           -8.6817     4.5595    -2.3882 H       
  60 H60           -8.9262     3.3779    -3.7830 H       
@<TRIPOS>BOND
   1    1    2 1
   2    1    9 1
   3    1   12 1
   4    1   13 1
   5    2    3 1
   6    3    4 1
   7    3   15 1
   8    3   16 1
   9    4    5 ar
  10    4    9 ar
  11    5    6 ar
  12    5   34 1
  13    6    7 ar
  14    6   35 1
  15    7    8 ar
  16    7   36 1
  17    8    9 ar
  18    8   37 1
  19   10   11 1
  20   10   14 1
  21   10   19 1
  22   11   12 1
  23   11   38 1
  24   11   39 1
  25   12   40 1
  26   12   41 1
  27   13   14 1
  28   13   42 1
  29   13   43 1
  30   14   44 1
  31   14   45 1
  32   15   46 1
  33   15   47 1
  34   15   48 1
  35   16   49 1
  36   16   50 1
  37   16   51 1
  38   17   18 1
  39   17   22 1
  40   17   24 2
  41   18   19 2
  42   18   26 1
  43   19   20 1
  44   20   21 2
  45   20   52 1
  46   21   22 1
  47   21   53 1
  48   22   25 1
  49   23   24 1
  50   23   25 2
  51   25   30 1
  52   26   27 1
  53   26   28 1
  54   26   29 1
  55   30   31 1
  56   30   54 1
  57   30   55 1
  58   31   32 1
  59   31   33 1
  60   31   56 1
  61   32   33 1
  62   32   57 1
  63   32   58 1
  64   33   59 1
  65   33   60 1

#	End of record

