#	Name: ASD03430792
#	Creating user name:	WinNT
#	Creation time:	15. 06. 2019 20:41

#	Modifying user name:	WinNT
#	Modification time:	15. 06. 2019 20:41

#	Program:	/corina/corina34_cracker 3.40 0067  02.08.2006

@<TRIPOS>MOLECULE
ASD03430792
  35   39    0    0    0
SMALL
NO_CHARGES


@<TRIPOS>ATOM
   1 C1            -0.0168     1.3857     0.0097 C.ar    
   2 C2             0.0021    -0.0041     0.0020 C.ar    
   3 C3             1.2110    -0.6774    -0.0086 C.ar    
   4 C4             2.4125     0.0232    -0.0058 C.ar    
   5 C5             2.3831     1.4155    -0.0056 C.ar    
   6 C6             1.1781     2.0889     0.0020 C.ar    
   7 C7             1.5663    -2.1392    -0.0381 C.3     
   8 C8             3.0531    -2.1325    -0.4218 C.3     
   9 C9             0.4588    -3.8647     1.0190 C.ar    
  10 C10            1.3346    -2.8137     1.2814 C.ar    
  11 C11            0.7401    -2.9081    -1.0287 C.2     
  12 N12            0.1310    -3.8928    -0.3386 N.am    
  13 O13            0.6401    -2.6863    -2.2169 O.2     
  14 C14            1.7946    -2.5880     2.5591 C.ar    
  15 C15            1.3910    -3.4101     3.5967 C.ar    
  16 C16            0.5243    -4.4580     3.3472 C.ar    
  17 C17            0.0583    -4.6869     2.0689 C.ar    
  18 O18            3.4800    -0.8260     0.0092 O.3     
  19 O19           -1.1948     2.0680     0.0302 O.3     
  20 O20           -1.1600    -0.7140    -0.0005 O.3     
  21 C21           -2.3454    -0.0117     0.3878 C.3     
  22 C22           -2.3686     1.3367    -0.3408 C.3     
  23 Cl23           3.8710     2.3097    -0.0144 Cl      
  24 H24            1.1661     3.1689     0.0020 H       
  25 H25            3.5945    -2.9127     0.1132 H       
  26 H26            3.1754    -2.2439    -1.4991 H       
  27 H27           -0.4655    -4.5450    -0.7382 H       
  28 H28            2.4714    -1.7688     2.7519 H       
  29 H29            1.7526    -3.2336     4.5990 H       
  30 H30            0.2108    -5.1005     4.1567 H       
  31 H31           -0.6191    -5.5070     1.8819 H       
  32 H32           -3.2245    -0.5943     0.1123 H       
  33 H33           -2.3373     0.1553     1.4649 H       
  34 H34           -3.2586     1.8956    -0.0516 H       
  35 H35           -2.3707     1.1724    -1.4183 H       
@<TRIPOS>BOND
   1    1    2 ar
   2    1    6 ar
   3    1   19 1
   4    2    3 ar
   5    2   20 1
   6    3    4 ar
   7    3    7 1
   8    4    5 ar
   9    4   18 1
  10    5    6 ar
  11    5   23 1
  12    6   24 1
  13    7    8 1
  14    7   10 1
  15    7   11 1
  16    8   18 1
  17    8   25 1
  18    8   26 1
  19    9   10 ar
  20    9   12 1
  21    9   17 ar
  22   10   14 ar
  23   11   12 am
  24   11   13 2
  25   12   27 1
  26   14   15 ar
  27   14   28 1
  28   15   16 ar
  29   15   29 1
  30   16   17 ar
  31   16   30 1
  32   17   31 1
  33   19   22 1
  34   20   21 1
  35   21   22 1
  36   21   32 1
  37   21   33 1
  38   22   34 1
  39   22   35 1

#	End of record

