#	Name: ASD06660186
#	Creating user name:	WinNT
#	Creation time:	15. 06. 2019 21:08

#	Modifying user name:	WinNT
#	Modification time:	15. 06. 2019 21:08

#	Program:	/corina/corina34_cracker 3.40 0067  02.08.2006

@<TRIPOS>MOLECULE
ASD06660186
  70   72    0    0    0
SMALL
NO_CHARGES


@<TRIPOS>ATOM
   1 C1            -0.0184     1.5028     0.0103 C.2     
   2 C2             0.0021    -0.0041     0.0020 C.3     
   3 C3            -0.2550    -0.5098    -1.4189 C.3     
   4 O4             1.0197     2.1211     0.0037 O.2     
   5 O5            -1.1898     2.1580     0.0194 O.3     
   6 C6            -0.3567    -2.0133    -1.4063 C.ar    
   7 C7            -1.5846    -2.6201    -1.2157 C.ar    
   8 C8            -1.6814    -3.9977    -1.2036 C.ar    
   9 C9            -0.5434    -4.7739    -1.3831 C.ar    
  10 C10            0.6885    -4.1611    -1.5743 C.ar    
  11 C11            0.7772    -2.7830    -1.5909 C.ar    
  12 N12           -0.6376    -6.1674    -1.3709 N.3     
  13 C13            0.6782    -6.7856    -1.5780 C.3     
  14 C14            0.5166    -8.3022    -1.7040 C.3     
  15 C15           -0.1302    -8.8494    -0.4286 C.3     
  16 C16           -1.4770    -8.1544    -0.2100 C.3     
  17 C17           -1.2576    -6.6421    -0.1273 C.3     
  18 C18           -0.3501   -10.3567    -0.5729 C.3     
  19 N19           -0.8577   -10.8992     0.6897 N.am    
  20 C20           -2.2311   -10.9569     0.9214 C.ar    
  21 C21           -3.1159   -10.5958    -0.0885 C.ar    
  22 C22           -4.4765   -10.6577     0.1549 C.ar    
  23 C23           -4.9071   -11.0803     1.4053 C.ar    
  24 C24           -3.9724   -11.4238     2.3616 C.ar    
  25 N25           -2.6810   -11.3600     2.0990 N.ar    
  26 C26            0.0031   -11.3426     1.6271 C.2     
  27 O27            1.2002   -11.2924     1.4251 O.2     
  28 O28           -0.4634   -11.8413     2.7875 O.3     
  29 C29            0.5211   -12.3003     3.7510 C.3     
  30 C30            1.4340   -11.1361     4.1413 C.3     
  31 C31           -0.1924   -12.8287     4.9970 C.3     
  32 C32            1.3592   -13.4195     3.1299 C.3     
  33 N33            1.3145    -0.4785     0.4607 N.3     
  34 C34           -1.1335     3.6089     0.0270 C.3     
  35 H35           -0.7738    -0.3816     0.6680 H       
  36 H36           -1.1871    -0.0857    -1.7924 H       
  37 H37            0.5674    -0.2067    -2.0668 H       
  38 H38           -2.4689    -2.0160    -1.0759 H       
  39 H39           -2.6406    -4.4710    -1.0544 H       
  40 H40            1.5751    -4.7617    -1.7141 H       
  41 H41            1.7339    -2.3059    -1.7442 H       
  42 H42            1.1254    -6.3910    -2.4903 H       
  43 H43            1.3237    -6.5584    -0.7296 H       
  44 H44           -0.1176    -8.5307    -2.5606 H       
  45 H45            1.4951    -8.7622    -1.8421 H       
  46 H46            0.5222    -8.6555     0.4228 H       
  47 H47           -2.1426    -8.3806    -1.0430 H       
  48 H48           -1.9228    -8.5089     0.7193 H       
  49 H49           -0.6030    -6.4156     0.7143 H       
  50 H50           -2.2163    -6.1433     0.0140 H       
  51 H51           -1.0740   -10.5439    -1.3660 H       
  52 H52            0.5948   -10.8395    -0.8221 H       
  53 H53           -2.7461   -10.2711    -1.0499 H       
  54 H54           -5.1874   -10.3830    -0.6103 H       
  55 H55           -5.9623   -11.1395     1.6277 H       
  56 H56           -4.3027   -11.7532     3.3357 H       
  57 H57            0.8369   -10.3387     4.5837 H       
  58 H58            2.1731   -11.4807     4.8645 H       
  59 H59            1.9423   -10.7596     3.2536 H       
  60 H60           -0.8428   -13.6581     4.7189 H       
  61 H61            0.5467   -13.1733     5.7202 H       
  62 H62           -0.7895   -12.0313     5.4394 H       
  63 H63            1.8676   -13.0430     2.2423 H       
  64 H64            2.0983   -13.7641     3.8532 H       
  65 H65            0.7089   -14.2489     2.8519 H       
  66 H66            1.3326    -1.4853     0.5256 H       
  67 H67            2.0512    -0.1417    -0.1409 H       
  68 H68           -0.6102     3.9569    -0.8636 H       
  69 H69           -2.1463     4.0118     0.0340 H       
  70 H70           -0.6017     3.9472     0.9164 H       
@<TRIPOS>BOND
   1    1    2 1
   2    1    4 2
   3    1    5 1
   4    2    3 1
   5    2   33 1
   6    2   35 1
   7    3    6 1
   8    3   36 1
   9    3   37 1
  10    5   34 1
  11    6    7 ar
  12    6   11 ar
  13    7    8 ar
  14    7   38 1
  15    8    9 ar
  16    8   39 1
  17    9   10 ar
  18    9   12 1
  19   10   11 ar
  20   10   40 1
  21   11   41 1
  22   12   13 1
  23   12   17 1
  24   13   14 1
  25   13   42 1
  26   13   43 1
  27   14   15 1
  28   14   44 1
  29   14   45 1
  30   15   16 1
  31   15   18 1
  32   15   46 1
  33   16   17 1
  34   16   47 1
  35   16   48 1
  36   17   49 1
  37   17   50 1
  38   18   19 1
  39   18   51 1
  40   18   52 1
  41   19   20 1
  42   19   26 am
  43   20   21 ar
  44   20   25 ar
  45   21   22 ar
  46   21   53 1
  47   22   23 ar
  48   22   54 1
  49   23   24 ar
  50   23   55 1
  51   24   25 ar
  52   24   56 1
  53   26   27 2
  54   26   28 1
  55   28   29 1
  56   29   30 1
  57   29   32 1
  58   29   31 1
  59   30   57 1
  60   30   58 1
  61   30   59 1
  62   31   60 1
  63   31   61 1
  64   31   62 1
  65   32   63 1
  66   32   64 1
  67   32   65 1
  68   33   66 1
  69   33   67 1
  70   34   68 1
  71   34   69 1
  72   34   70 1

#	End of record

