#	Name: ASD01708008
#	Creating user name:	WinNT
#	Creation time:	15. 06. 2019 19:22

#	Modifying user name:	WinNT
#	Modification time:	15. 06. 2019 19:22

#	Program:	/corina/corina34_cracker 3.40 0067  02.08.2006

@<TRIPOS>MOLECULE
ASD01708008
  60   64    0    0    0
SMALL
NO_CHARGES


@<TRIPOS>ATOM
   1 C1            -0.0225     1.3403    -0.1049 C.2     
   2 C2            -0.0021    -0.0086    -0.1166 C.2     
   3 C3             1.1774     2.0703    -0.0649 C.2     
   4 C4             2.3656     1.4092    -0.0379 C.2     
   5 C5             2.3697    -0.0005    -0.0506 C.2     
   6 N6             1.1825    -0.6882    -0.0893 N.pl3   
   7 C7             3.3902    -0.9381    -0.0303 C.2     
   8 C8             2.7987    -2.2046    -0.0579 C.2     
   9 N9             1.4827    -2.0563    -0.0931 N.2     
  10 C10            3.5212    -3.4942    -0.0486 C.2     
  11 N11            2.8356    -4.6501     0.0536 N.am    
  12 O12            4.7337    -3.5122    -0.1332 O.2     
  13 C13            3.5098    -5.9536    -0.0648 C.3     
  14 C14            1.3887    -4.6603     0.2935 C.3     
  15 C15            1.0551    -5.6881     1.3463 C.ar    
  16 C16            1.9739    -6.6165     1.7859 C.ar    
  17 C17            3.3840    -6.6705     1.2784 C.3     
  18 C18           -0.2308    -5.6765     1.8735 C.ar    
  19 C19           -0.6075    -6.5912     2.8326 C.ar    
  20 C20            0.3153    -7.5417     3.2784 C.ar    
  21 C21            1.6048    -7.5466     2.7487 C.ar    
  22 Cl22           2.7570    -8.7239     3.2963 Cl      
  23 Cl23          -2.2167    -6.5631     3.4831 Cl      
  24 C24           -0.0726    -8.5328     4.3024 C.2     
  25 N25            0.0982    -8.2532     5.6097 N.am    
  26 O26           -0.5461    -9.6008     3.9660 O.2     
  27 C27           -0.2866    -9.2363     6.6254 C.3     
  28 C28           -1.7544    -9.0910     6.9345 C.2     
  29 O29           -2.4116    -8.2522     6.3648 O.2     
  30 O30           -2.3316    -9.8933     7.8427 O.3     
  31 C31            0.5285    -9.0000     7.8985 C.3     
  32 N32            1.9572    -9.0231     7.5749 N.am    
  33 C33            2.8715    -8.8360     8.5473 C.2     
  34 C34            4.3009    -8.8591     8.2235 C.2     
  35 O35            2.5103    -8.6480     9.6941 O.2     
  36 C36            5.3191    -8.6831     9.1177 C.2     
  37 C37            6.5659    -8.7532     8.5426 C.2     
  38 C38            6.5708    -8.9787     7.2236 C.2     
  39 S39            4.9802    -9.1251     6.6237 S.3     
  40 H40           -0.9674     1.8626    -0.1309 H       
  41 H41           -0.9321    -0.5568    -0.1474 H       
  42 H42            1.1562     3.1501    -0.0560 H       
  43 H43            3.2954     1.9578    -0.0074 H       
  44 H44            4.4492    -0.7286     0.0006 H       
  45 H45            3.0325    -6.5462    -0.8453 H       
  46 H46            4.5622    -5.8041    -0.3059 H       
  47 H47            1.0707    -3.6752     0.6348 H       
  48 H48            0.8694    -4.9077    -0.6323 H       
  49 H49            3.6796    -7.7119     1.1517 H       
  50 H50            4.0446    -6.1970     2.0047 H       
  51 H51           -0.9429    -4.9418     1.5277 H       
  52 H52            0.4760    -7.4010     5.8781 H       
  53 H53           -0.0920   -10.2411     6.2506 H       
  54 H54           -3.2755    -9.7624     8.0073 H       
  55 H55            0.2676    -8.0303     8.3223 H       
  56 H56            0.3073    -9.7844     8.6223 H       
  57 H57            2.2451    -9.1729     6.6608 H       
  58 H58            5.1603    -8.5061    10.1711 H       
  59 H59            7.4749    -8.6346     9.1136 H       
  60 H60            7.4626    -9.0614     6.6201 H       
@<TRIPOS>BOND
   1    1    2 2
   2    1    3 1
   3    1   40 1
   4    2    6 1
   5    2   41 1
   6    3    4 2
   7    3   42 1
   8    4    5 1
   9    4   43 1
  10    5    6 1
  11    5    7 2
  12    6    9 1
  13    7    8 1
  14    7   44 1
  15    8    9 2
  16    8   10 1
  17   10   11 am
  18   10   12 2
  19   11   13 1
  20   11   14 1
  21   13   17 1
  22   13   45 1
  23   13   46 1
  24   14   15 1
  25   14   47 1
  26   14   48 1
  27   15   16 ar
  28   15   18 ar
  29   16   17 1
  30   16   21 ar
  31   17   49 1
  32   17   50 1
  33   18   19 ar
  34   18   51 1
  35   19   20 ar
  36   19   23 1
  37   20   21 ar
  38   20   24 1
  39   21   22 1
  40   24   25 am
  41   24   26 2
  42   25   27 1
  43   25   52 1
  44   27   28 1
  45   27   31 1
  46   27   53 1
  47   28   29 2
  48   28   30 1
  49   30   54 1
  50   31   32 1
  51   31   55 1
  52   31   56 1
  53   32   33 am
  54   32   57 1
  55   33   34 1
  56   33   35 2
  57   34   36 2
  58   34   39 1
  59   36   37 1
  60   36   58 1
  61   37   38 2
  62   37   59 1
  63   38   39 1
  64   38   60 1

#	End of record

