#	Name: ASD03090536
#	Creating user name:	WinNT
#	Creation time:	15. 06. 2019 20:29

#	Modifying user name:	WinNT
#	Modification time:	15. 06. 2019 20:29

#	Program:	/corina/corina34_cracker 3.40 0067  02.08.2006

@<TRIPOS>MOLECULE
ASD03090536
  43   46    0    0    0
SMALL
NO_CHARGES


@<TRIPOS>ATOM
   1 C1            -0.2876     1.4378     0.3040 C.2     
   2 C2            -0.3324    -0.0669     0.3741 C.3     
   3 O3             0.7802     2.0110     0.2531 O.2     
   4 N4            -1.4340     2.1463     0.2924 N.am    
   5 N5             4.9177    -2.0926     0.6194 N.pl3   
   6 C6             5.1062    -2.0913     1.9747 C.2     
   7 C7             4.0058    -1.6294     2.5893 C.2     
   8 C8             3.0331    -1.3087     1.5420 C.ar    
   9 C9             1.7315    -0.8031     1.5482 C.ar    
  10 C10            1.0725    -0.6122     0.3667 C.ar    
  11 C11            1.6864    -0.9171    -0.8406 C.ar    
  12 C12            2.9695    -1.4173    -0.8696 C.ar    
  13 C13            3.6594    -1.6196     0.3214 C.ar    
  14 C14           -2.3485     4.2979    -0.3328 C.ar    
  15 C15           -1.3929     3.5464     0.3351 C.ar    
  16 C16           -0.3918     4.2014     1.0494 C.ar    
  17 C17           -0.3908     5.5849     1.0641 C.ar    
  18 C18           -1.3804     6.2703     0.3715 C.ar    
  19 N19           -2.3159     5.6160    -0.2964 N.ar    
  20 O20           -1.3879     7.6276     0.3805 O.3     
  21 C21           -2.3065     8.2657    -0.3916 C.ar    
  22 C22           -3.5819     8.5081     0.1018 C.ar    
  23 C23           -4.5144     9.1572    -0.6854 C.ar    
  24 C24           -4.1784     9.5648    -1.9633 C.ar    
  25 C25           -2.9087     9.3242    -2.4573 C.ar    
  26 C26           -1.9701     8.6810    -1.6712 C.ar    
  27 Cl27          -2.4911     9.8365    -4.0626 Cl      
  28 Cl28          -4.0049     7.9957     1.7056 Cl      
  29 H29           -0.8361    -0.3731     1.2910 H       
  30 H30           -0.8772    -0.4547    -0.4867 H       
  31 H31           -2.2876     1.6871     0.2544 H       
  32 H32            5.5742    -2.3801    -0.0342 H       
  33 H33            6.0068    -2.4143     2.4757 H       
  34 H34            3.8645    -1.5157     3.6540 H       
  35 H35            1.2473    -0.5645     2.4835 H       
  36 H36            1.1525    -0.7607    -1.7663 H       
  37 H37            3.4384    -1.6517    -1.8139 H       
  38 H38           -3.1253     3.7982    -0.8925 H       
  39 H39            0.3653     3.6424     1.5793 H       
  40 H40            0.3700     6.1252     1.6078 H       
  41 H41           -5.5063     9.3459    -0.3021 H       
  42 H42           -4.9086    10.0716    -2.5769 H       
  43 H43           -0.9776     8.4976    -2.0554 H       
@<TRIPOS>BOND
   1    1    2 1
   2    1    3 2
   3    1    4 am
   4    2   10 1
   5    2   29 1
   6    2   30 1
   7    4   15 1
   8    4   31 1
   9    5    6 1
  10    5   13 1
  11    5   32 1
  12    6    7 2
  13    6   33 1
  14    7    8 1
  15    7   34 1
  16    8    9 ar
  17    8   13 ar
  18    9   10 ar
  19    9   35 1
  20   10   11 ar
  21   11   12 ar
  22   11   36 1
  23   12   13 ar
  24   12   37 1
  25   14   15 ar
  26   14   19 ar
  27   14   38 1
  28   15   16 ar
  29   16   17 ar
  30   16   39 1
  31   17   18 ar
  32   17   40 1
  33   18   19 ar
  34   18   20 1
  35   20   21 1
  36   21   22 ar
  37   21   26 ar
  38   22   23 ar
  39   22   28 1
  40   23   24 ar
  41   23   41 1
  42   24   25 ar
  43   24   42 1
  44   25   26 ar
  45   25   27 1
  46   26   43 1

#	End of record

