#	Name: ASD01883717
#	Creating user name:	WinNT
#	Creation time:	15. 06. 2019 19:46

#	Modifying user name:	WinNT
#	Modification time:	15. 06. 2019 19:46

#	Program:	/corina/corina34_cracker 3.40 0067  02.08.2006

@<TRIPOS>MOLECULE
ASD01883717
  45   48    0    0    0
SMALL
NO_CHARGES


@<TRIPOS>ATOM
   1 C1            -0.0169     1.3976     0.0505 C.2     
   2 C2             0.0021    -0.0041     0.0020 C.2     
   3 C3            -1.2223    -0.7039    -0.0311 C.2     
   4 C4            -2.3970    -0.0467    -0.0168 C.2     
   5 N5            -2.4615     1.3157     0.0300 N.pl3   
   6 C6            -1.3173     2.0707     0.0706 C.2     
   7 C7            -3.5158     2.1916     0.0527 C.2     
   8 C8            -2.9979     3.4371     0.0996 C.2     
   9 N9            -1.6640     3.3446     0.1108 N.2     
  10 C10           -4.9789     1.8314     0.0296 C.3     
  11 C11           -5.4937     1.8812    -1.4103 C.3     
  12 C12            1.2855    -0.7368    -0.0146 C.ar    
  13 C13            1.6323    -1.5649     1.0552 C.ar    
  14 C14            2.8290    -2.2472     1.0371 C.ar    
  15 C15            3.6922    -2.1119    -0.0448 C.ar    
  16 C16            3.3500    -1.2868    -1.1130 C.ar    
  17 C17            2.1516    -0.6068    -1.1033 C.ar    
  18 F18           -4.7768     0.9705    -2.1937 F       
  19 F19           -6.8520     1.5468    -1.4317 F       
  20 F20           -5.3232     3.1721    -1.9221 F       
  21 N21            4.9027    -2.8034    -0.0598 N.3     
  22 C22            4.9126    -3.8253    -1.1165 C.3     
  23 C23            6.2778    -4.5179    -1.1364 C.3     
  24 O24            6.5447    -5.0717     0.1549 O.3     
  25 C25            6.5433    -4.1039     1.2078 C.3     
  26 C26            5.1807    -3.4072     1.2515 C.3     
  27 Cl27           4.4307    -1.1204    -2.4614 Cl      
  28 C28            1.2014     2.1492     0.0853 C.1     
  29 N29            2.1679     2.7455     0.1130 N.1     
  30 H30           -1.2172    -1.7832    -0.0689 H       
  31 H31           -3.3155    -0.6143    -0.0435 H       
  32 H32           -3.5661     4.3552     0.1270 H       
  33 H33           -5.1118     0.8257     0.4284 H       
  34 H34           -5.5375     2.5410     0.6400 H       
  35 H35            0.9630    -1.6701     1.8962 H       
  36 H36            3.0973    -2.8876     1.8643 H       
  37 H37            1.8862     0.0329    -1.9320 H       
  38 H38            4.1338    -4.5617    -0.9181 H       
  39 H39            4.7301    -3.3527    -2.0816 H       
  40 H40            6.2708    -5.3149    -1.8799 H       
  41 H41            7.0507    -3.7916    -1.3878 H       
  42 H42            6.7283    -4.6015     2.1598 H       
  43 H43            7.3239    -3.3655     1.0246 H       
  44 H44            5.1940    -2.6293     2.0149 H       
  45 H45            4.4062    -4.1368     1.4878 H       
@<TRIPOS>BOND
   1    1    2 2
   2    1   28 1
   3    1    6 1
   4    2    3 1
   5    2   12 1
   6    3    4 2
   7    3   30 1
   8    4    5 1
   9    4   31 1
  10    5    6 1
  11    5    7 1
  12    6    9 2
  13    7    8 2
  14    7   10 1
  15    8    9 1
  16    8   32 1
  17   10   11 1
  18   10   33 1
  19   10   34 1
  20   11   18 1
  21   11   19 1
  22   11   20 1
  23   12   13 ar
  24   12   17 ar
  25   13   14 ar
  26   13   35 1
  27   14   15 ar
  28   14   36 1
  29   15   16 ar
  30   15   21 1
  31   16   17 ar
  32   16   27 1
  33   17   37 1
  34   21   22 1
  35   21   26 1
  36   22   23 1
  37   22   38 1
  38   22   39 1
  39   23   24 1
  40   23   40 1
  41   23   41 1
  42   24   25 1
  43   25   26 1
  44   25   42 1
  45   25   43 1
  46   26   44 1
  47   26   45 1
  48   28   29 3

#	End of record

