#	Name: ASD07300797
#	Creating user name:	WinNT
#	Creation time:	15. 06. 2019 21:10

#	Modifying user name:	WinNT
#	Modification time:	15. 06. 2019 21:10

#	Program:	/corina/corina34_cracker 3.40 0067  02.08.2006

@<TRIPOS>MOLECULE
ASD07300797
  56   59    0    0    0
SMALL
NO_CHARGES


@<TRIPOS>ATOM
   1 C1             0.0384     1.0876    -0.1133 C.2     
   2 C2             0.0759    -0.3289    -0.1285 C.2     
   3 N3             1.2258     1.7779    -0.1038 N.pl3   
   4 N4             1.2391    -0.9487    -0.1332 N.2     
   5 C5             2.3899    -0.2672    -0.1239 C.2     
   6 C6             2.4064     1.0801    -0.1098 C.2     
   7 N7            -0.9507     1.9651    -0.1002 N.2     
   8 C8            -0.4486     3.1976    -0.0884 C.2     
   9 C9             0.9158     3.1089    -0.0895 C.2     
  10 N10           -1.1029    -1.0577    -0.1379 N.pl3   
  11 C11           -2.4077    -0.3895    -0.0107 C.3     
  12 C12           -3.3168    -0.8846    -1.1413 C.3     
  13 O13           -3.3328    -2.3142    -1.1406 O.3     
  14 C14           -2.0600    -2.9139    -1.3936 C.3     
  15 C15           -1.0869    -2.5221    -0.2815 C.3     
  16 C16           -1.2485     4.4747    -0.0724 C.3     
  17 N17            2.8634     6.1402    -0.5250 N.pl3   
  18 N18            3.6092     5.4802     0.4590 N.2     
  19 C19            3.0244     4.3442     0.7326 C.2     
  20 C20            1.8736     4.2380    -0.0748 C.2     
  21 C21            1.8036     5.3664    -0.8413 C.2     
  22 C22            3.1759     7.4480    -1.1065 C.3     
  23 C23            3.3148     8.4832     0.0115 C.3     
  24 C24            3.7629     9.8196    -0.5837 C.3     
  25 C25            5.1670     9.6703    -1.1729 C.3     
  26 C26            2.7889    10.2389    -1.6865 C.3     
  27 O27            2.0549     8.6511     0.6645 O.3     
  28 C28            2.1568     8.9163     2.0649 C.3     
  29 H29            3.3249    -0.8077    -0.1282 H       
  30 H30            3.3477     1.6094    -0.1028 H       
  31 H31           -2.8536    -0.6352     0.9531 H       
  32 H32           -2.2769     0.6897    -0.0907 H       
  33 H33           -4.3282    -0.5091    -0.9862 H       
  34 H34           -2.9369    -0.5253    -2.0977 H       
  35 H35           -2.1673    -3.9983    -1.4200 H       
  36 H36           -1.6755    -2.5619    -2.3509 H       
  37 H37           -0.0817    -2.8546    -0.5408 H       
  38 H38           -1.3975    -2.9863     0.6546 H       
  39 H39           -1.4380     4.7718     0.9590 H       
  40 H40           -0.6888     5.2604    -0.5799 H       
  41 H41           -2.1973     4.3156    -0.5849 H       
  42 H42            3.3638     3.6136     1.4519 H       
  43 H43            1.0389     5.5977    -1.5681 H       
  44 H44            4.1120     7.3847    -1.6614 H       
  45 H45            2.3734     7.7470    -1.7808 H       
  46 H46            4.0556     8.1406     0.7339 H       
  47 H47            3.7758    10.5793     0.1979 H       
  48 H48            5.1351     8.9825    -2.0179 H       
  49 H49            5.5250    10.6432    -1.5096 H       
  50 H50            5.8410     9.2788    -0.4110 H       
  51 H51            2.7760     9.4792    -2.4681 H       
  52 H52            1.7886    10.3453    -1.2667 H       
  53 H53            3.1081    11.1910    -2.1105 H       
  54 H54            2.7414     8.1297     2.5421 H       
  55 H55            2.6477     9.8774     2.2179 H       
  56 H56            1.1591     8.9441     2.5030 H       
@<TRIPOS>BOND
   1    1    2 1
   2    1    3 1
   3    1    7 2
   4    2    4 2
   5    2   10 1
   6    3    6 1
   7    3    9 1
   8    4    5 1
   9    5    6 2
  10    5   29 1
  11    6   30 1
  12    7    8 1
  13    8    9 2
  14    8   16 1
  15    9   20 1
  16   10   11 1
  17   10   15 1
  18   11   12 1
  19   11   31 1
  20   11   32 1
  21   12   13 1
  22   12   33 1
  23   12   34 1
  24   13   14 1
  25   14   15 1
  26   14   35 1
  27   14   36 1
  28   15   37 1
  29   15   38 1
  30   16   39 1
  31   16   40 1
  32   16   41 1
  33   17   18 1
  34   17   21 1
  35   17   22 1
  36   18   19 2
  37   19   20 1
  38   19   42 1
  39   20   21 2
  40   21   43 1
  41   22   23 1
  42   22   44 1
  43   22   45 1
  44   23   24 1
  45   23   27 1
  46   23   46 1
  47   24   25 1
  48   24   26 1
  49   24   47 1
  50   25   48 1
  51   25   49 1
  52   25   50 1
  53   26   51 1
  54   26   52 1
  55   26   53 1
  56   27   28 1
  57   28   54 1
  58   28   55 1
  59   28   56 1

#	End of record

