#	Name: ASD02198883
#	Creating user name:	WinNT
#	Creation time:	15. 06. 2019 20:20

#	Modifying user name:	WinNT
#	Modification time:	15. 06. 2019 20:20

#	Program:	/corina/corina34_cracker 3.40 0067  02.08.2006

@<TRIPOS>MOLECULE
ASD02198883
  56   60    0    0    0
SMALL
NO_CHARGES


@<TRIPOS>ATOM
   1 C1             0.3545     0.3302    -0.0239 C.2     
   2 C2             0.3414    -0.9053     0.5369 C.2     
   3 N3             1.4889    -1.4953     0.9407 N.pl3   
   4 N4             2.6413    -0.9458     0.8260 N.2     
   5 C5             2.7961     0.2502     0.2994 C.2     
   6 C6             1.6055     0.9760    -0.1709 C.2     
   7 C7             1.4148    -2.7697     1.5131 C.ar    
   8 C8             1.9601    -3.0006     2.7754 C.ar    
   9 C9             1.8846    -4.2632     3.3392 C.ar    
  10 C10            1.2665    -5.2954     2.6471 C.ar    
  11 C11            0.7241    -5.0632     1.3891 C.ar    
  12 C12            0.7928    -3.8047     0.8270 C.ar    
  13 C13            4.1394     0.8532     0.1834 C.2     
  14 N14            4.7250     1.3175    -0.9608 N.pl3   
  15 N15            5.9935     1.8054    -0.6231 N.2     
  16 C16            6.1763     1.6480     0.6637 C.2     
  17 C17            5.0357     1.0589     1.2092 C.2     
  18 C18            4.1582     1.3068    -2.2417 C.ar    
  19 C19            4.2749     2.4202    -3.0632 C.ar    
  20 C20            3.7155     2.4071    -4.3262 C.ar    
  21 C21            3.0397     1.2870    -4.7732 C.ar    
  22 C22            2.9214     0.1752    -3.9571 C.ar    
  23 C23            3.4836     0.1807    -2.6945 C.ar    
  24 O24            1.6931     2.0890    -0.6680 O.2     
  25 N25            1.1899    -6.5734     3.2175 N.pl3   
  26 N26            0.9626    -6.8616     4.5693 N.2     
  27 Cl27           2.0720    -1.2293    -4.5223 Cl      
  28 C28            0.9581    -8.1616     4.7191 C.2     
  29 C29            1.1819    -8.7514     3.4711 C.2     
  30 C30            1.3171    -7.7548     2.5564 C.2     
  31 O31            1.5456    -7.9104     1.2273 O.3     
  32 C32            1.5711    -9.2483     0.7257 C.3     
  33 F33            2.5557    -9.9798     1.3984 F       
  34 F34            0.3234    -9.8471     0.9308 F       
  35 O35            2.5652    -1.9885     3.4510 O.3     
  36 C36            3.1014    -2.2977     4.7390 C.3     
  37 C37            7.4124     2.0431     1.4297 C.3     
  38 H38           -0.5593     0.8035    -0.3516 H       
  39 H39           -0.5976    -1.4238     0.6626 H       
  40 H40            2.3066    -4.4446     4.3166 H       
  41 H41            0.2443    -5.8680     0.8520 H       
  42 H42            0.3704    -3.6267    -0.1509 H       
  43 H43            4.8849     0.8040     2.2478 H       
  44 H44            4.8023     3.2959    -2.7148 H       
  45 H45            3.8059     3.2732    -4.9651 H       
  46 H46            2.6030     1.2795    -5.7609 H       
  47 H47            3.3916    -0.6869    -2.0579 H       
  48 H48            0.8074    -8.6895     5.6491 H       
  49 H49            1.2342    -9.8111     3.2690 H       
  50 H50            1.7954    -9.2322    -0.3408 H       
  51 H51            2.3013    -2.6480     5.3911 H       
  52 H52            3.8571    -3.0770     4.6404 H       
  53 H53            3.5547    -1.4041     5.1679 H       
  54 H54            7.3072     3.0679     1.7858 H       
  55 H55            7.5418     1.3743     2.2807 H       
  56 H56            8.2824     1.9728     0.7769 H       
@<TRIPOS>BOND
   1    1    2 2
   2    1    6 1
   3    1   38 1
   4    2    3 1
   5    2   39 1
   6    3    4 1
   7    3    7 1
   8    4    5 2
   9    5    6 1
  10    5   13 1
  11    6   24 2
  12    7    8 ar
  13    7   12 ar
  14    8    9 ar
  15    8   35 1
  16    9   10 ar
  17    9   40 1
  18   10   11 ar
  19   10   25 1
  20   11   12 ar
  21   11   41 1
  22   12   42 1
  23   13   14 1
  24   13   17 2
  25   14   15 1
  26   14   18 1
  27   15   16 2
  28   16   17 1
  29   16   37 1
  30   17   43 1
  31   18   19 ar
  32   18   23 ar
  33   19   20 ar
  34   19   44 1
  35   20   21 ar
  36   20   45 1
  37   21   22 ar
  38   21   46 1
  39   22   23 ar
  40   22   27 1
  41   23   47 1
  42   25   26 1
  43   25   30 1
  44   26   28 2
  45   28   29 1
  46   28   48 1
  47   29   30 2
  48   29   49 1
  49   30   31 1
  50   31   32 1
  51   32   33 1
  52   32   34 1
  53   32   50 1
  54   35   36 1
  55   36   51 1
  56   36   52 1
  57   36   53 1
  58   37   54 1
  59   37   55 1
  60   37   56 1

#	End of record

