#	Name: ASD02030053
#	Creating user name:	WinNT
#	Creation time:	15. 06. 2019 20:14

#	Modifying user name:	WinNT
#	Modification time:	15. 06. 2019 20:14

#	Program:	/corina/corina34_cracker 3.40 0067  02.08.2006

@<TRIPOS>MOLECULE
ASD02030053
  43   44    0    0    0
SMALL
NO_CHARGES


@<TRIPOS>ATOM
   1 C1            -0.0167     1.3816     0.0096 C.ar    
   2 C2             0.0021    -0.0041     0.0020 C.ar    
   3 C3            -1.1851    -0.7118     0.0096 C.ar    
   4 C4            -2.3958    -0.0363     0.0248 C.ar    
   5 C5            -2.4165     1.3508     0.0329 C.ar    
   6 C6            -1.2292     2.0594     0.0307 C.ar    
   7 F7            -1.2483     3.4103     0.0390 F       
   8 C8            -3.7325     2.0849     0.0495 C.3     
   9 C9            -4.1578     2.3216     1.4757 C.ar    
  10 C10           -3.7675     3.4777     2.1279 C.ar    
  11 C11           -4.1536     3.7009     3.4333 C.ar    
  12 C12           -4.9401     2.7568     4.0964 C.ar    
  13 C13           -5.3304     1.5923     3.4322 C.ar    
  14 C14           -4.9416     1.3843     2.1251 C.ar    
  15 O15           -3.5632    -0.7335     0.0313 O.3     
  16 C16           -3.4674    -2.1593     0.0218 C.3     
  17 O17           -3.0756    -2.6190     1.3169 O.3     
  18 C18           -4.1197    -2.5706     2.2913 C.3     
  19 O19            1.1519     2.0779     0.0022 O.3     
  20 C20            2.3609     1.3162    -0.0134 C.3     
  21 C21           -5.3570     2.9887     5.4945 C.2     
  22 O22           -5.0156     4.0026     6.0699 O.2     
  23 O23           -6.1159     2.0759     6.1313 O.3     
  24 C24           -6.4880     2.3699     7.5037 C.3     
  25 H25            0.9447    -0.5311    -0.0102 H       
  26 H26           -1.1696    -1.7917     0.0033 H       
  27 H27           -3.6210     3.0421    -0.4600 H       
  28 H28           -4.4882     1.4877    -0.4607 H       
  29 H29           -3.1588     4.2070     1.6140 H       
  30 H30           -3.8479     4.6036     3.9414 H       
  31 H31           -5.9385     0.8578     3.9394 H       
  32 H32           -5.2428     0.4840     1.6102 H       
  33 H33           -4.4358    -2.5868    -0.2379 H       
  34 H34           -2.7247    -2.4686    -0.7136 H       
  35 H35           -3.7424    -2.9356     3.2465 H       
  36 H36           -4.4629    -1.5423     2.4052 H       
  37 H37           -4.9502    -3.1968     1.9654 H       
  38 H38            2.4028     0.6830     0.8728 H       
  39 H39            2.3858     0.6926    -0.9070 H       
  40 H40            3.2161     1.9920    -0.0180 H       
  41 H41           -5.5881     2.4765     8.1093 H       
  42 H42           -7.0588     3.2980     7.5345 H       
  43 H43           -7.0966     1.5559     7.8975 H       
@<TRIPOS>BOND
   1    1    2 ar
   2    1   19 1
   3    1    6 ar
   4    2    3 ar
   5    2   25 1
   6    3    4 ar
   7    3   26 1
   8    4    5 ar
   9    4   15 1
  10    5    6 ar
  11    5    8 1
  12    6    7 1
  13    8    9 1
  14    8   27 1
  15    8   28 1
  16    9   10 ar
  17    9   14 ar
  18   10   11 ar
  19   10   29 1
  20   11   12 ar
  21   11   30 1
  22   12   13 ar
  23   12   21 1
  24   13   14 ar
  25   13   31 1
  26   14   32 1
  27   15   16 1
  28   16   17 1
  29   16   33 1
  30   16   34 1
  31   17   18 1
  32   18   35 1
  33   18   36 1
  34   18   37 1
  35   19   20 1
  36   20   38 1
  37   20   39 1
  38   20   40 1
  39   21   22 2
  40   21   23 1
  41   23   24 1
  42   24   41 1
  43   24   42 1
  44   24   43 1

#	End of record

