#	Name: ASD08150969
#	Creating user name:	WinNT
#	Creation time:	15. 06. 2019 21:16

#	Modifying user name:	WinNT
#	Modification time:	15. 06. 2019 21:16

#	Program:	/corina/corina34_cracker 3.40 0067  02.08.2006

@<TRIPOS>MOLECULE
ASD08150969
  61   66    0    0    0
SMALL
NO_CHARGES


@<TRIPOS>ATOM
   1 N1            -0.6929     1.9194    -0.4519 N.2     
   2 C2            -0.7149     0.6521    -0.7470 C.2     
   3 N3             0.5239     0.2448    -1.1440 N.pl3   
   4 C4             1.3537     1.3359    -1.0867 C.ar    
   5 N5             2.6386     1.5525    -1.3475 N.ar    
   6 C6             3.1624     2.7501    -1.1911 C.ar    
   7 N7             2.4551     3.7841    -0.7740 N.ar    
   8 C8             1.1626     3.6638    -0.4885 C.ar    
   9 C9             0.5579     2.4046    -0.6403 C.ar    
  10 N10            0.4296     4.7532    -0.0515 N.pl3   
  11 C11            1.0774     6.0583     0.1012 C.3     
  12 C12            1.1764     6.7415    -1.2642 C.3     
  13 N13            0.6917     9.6817     3.3566 N.ar    
  14 C14           -0.0121    10.4312     4.1699 C.ar    
  15 C15           -1.3855    10.2552     4.3244 C.ar    
  16 C16           -2.0314     9.2810     3.6179 C.ar    
  17 C17           -1.2718     8.4784     2.7458 C.ar    
  18 C18           -1.8687     7.4577     1.9870 C.ar    
  19 C19           -1.1059     6.6981     1.1510 C.ar    
  20 C20            0.2635     6.9170     1.0347 C.ar    
  21 C21            0.8848     7.9084     1.7624 C.ar    
  22 C22            0.1210     8.7118     2.6370 C.ar    
  23 N23            2.2586     8.1166     1.6364 N.3     
  24 C24            2.9450     7.8893     2.9151 C.3     
  25 C25            4.4604     7.9494     2.6954 C.3     
  26 N26            4.7862     9.2210     2.0321 N.am    
  27 C27            4.0405     9.5833     0.8172 C.3     
  28 C28            2.5416     9.4589     1.1109 C.3     
  29 C29            5.7425    10.0330     2.5246 C.2     
  30 O30            6.3259     9.7338     3.5478 O.2     
  31 C31            6.0826    11.2905     1.8186 C.ar    
  32 C32            6.8625    12.2520     2.4572 C.ar    
  33 C33            7.1727    13.4230     1.7839 C.ar    
  34 C34            6.6919    13.5916     0.4947 C.ar    
  35 C35            5.9214    12.5929    -0.0789 C.ar    
  36 N36            5.6462    11.4890     0.5811 N.ar    
  37 Cl37          -3.5749     7.1640     2.1144 Cl      
  38 H38           -1.5861     0.0167    -0.6859 H       
  39 H39            0.7731    -0.6521    -1.4168 H       
  40 H40            4.2100     2.8920    -1.4119 H       
  41 H41           -0.5131     4.6527     0.1537 H       
  42 H42            2.0775     5.9216     0.5125 H       
  43 H43            0.1855     6.7983    -1.7147 H       
  44 H44            1.5768     7.7475    -1.1390 H       
  45 H45            1.8374     6.1653    -1.9117 H       
  46 H46            0.4858    11.2052     4.7351 H       
  47 H47           -1.9387    10.8881     5.0025 H       
  48 H48           -3.0954     9.1303     3.7256 H       
  49 H49           -1.5709     5.9150     0.5705 H       
  50 H50            2.6501     8.6592     3.6281 H       
  51 H51            2.6726     6.9085     3.3048 H       
  52 H52            4.9721     7.8960     3.6563 H       
  53 H53            4.7722     7.1170     2.0646 H       
  54 H54            4.2746    10.6102     0.5364 H       
  55 H55            4.3119     8.9079     0.0059 H       
  56 H56            1.9767     9.6164     0.1921 H       
  57 H57            2.2523    10.2069     1.8490 H       
  58 H58            7.2201    12.0875     3.4630 H       
  59 H59            7.7750    14.1868     2.2530 H       
  60 H60            6.9153    14.4927    -0.0571 H       
  61 H61            5.5451    12.7210    -1.0831 H       
@<TRIPOS>BOND
   1    1    2 2
   2    1    9 1
   3    2    3 1
   4    2   38 1
   5    3    4 1
   6    3   39 1
   7    4    5 ar
   8    4    9 ar
   9    5    6 ar
  10    6    7 ar
  11    6   40 1
  12    7    8 ar
  13    8    9 ar
  14    8   10 1
  15   10   11 1
  16   10   41 1
  17   11   12 1
  18   11   20 1
  19   11   42 1
  20   12   43 1
  21   12   44 1
  22   12   45 1
  23   13   14 ar
  24   13   22 ar
  25   14   15 ar
  26   14   46 1
  27   15   16 ar
  28   15   47 1
  29   16   17 ar
  30   16   48 1
  31   17   18 ar
  32   17   22 ar
  33   18   19 ar
  34   18   37 1
  35   19   20 ar
  36   19   49 1
  37   20   21 ar
  38   21   22 ar
  39   21   23 1
  40   23   24 1
  41   23   28 1
  42   24   25 1
  43   24   50 1
  44   24   51 1
  45   25   26 1
  46   25   52 1
  47   25   53 1
  48   26   27 1
  49   26   29 am
  50   27   28 1
  51   27   54 1
  52   27   55 1
  53   28   56 1
  54   28   57 1
  55   29   30 2
  56   29   31 1
  57   31   32 ar
  58   31   36 ar
  59   32   33 ar
  60   32   58 1
  61   33   34 ar
  62   33   59 1
  63   34   35 ar
  64   34   60 1
  65   35   36 ar
  66   35   61 1

#	End of record

