#	Name: ASD03240613
#	Creating user name:	WinNT
#	Creation time:	15. 06. 2019 20:35

#	Modifying user name:	WinNT
#	Modification time:	15. 06. 2019 20:35

#	Program:	/corina/corina34_cracker 3.40 0067  02.08.2006

@<TRIPOS>MOLECULE
ASD03240613
  76   83    0    0    0
SMALL
NO_CHARGES


@<TRIPOS>ATOM
   1 C1             0.8400     0.2021     0.3016 C.ar    
   2 C2             1.0339    -1.1630     0.3494 C.ar    
   3 N3             2.2491    -1.6768     0.3643 N.ar    
   4 C4             3.3331    -0.9133     0.3348 C.ar    
   5 C5             3.2115     0.4735     0.2714 C.ar    
   6 C6             1.9447     1.0427     0.2612 C.ar    
   7 N7             4.5874    -1.5147     0.3888 N.pl3   
   8 C8             5.4450    -1.2738     1.4588 C.ar    
   9 C9             5.9219     0.0169     1.7111 C.ar    
  10 C10            5.5416     1.1370     0.8226 C.2     
  11 N11            4.3385     1.3046     0.2003 N.pl3   
  12 C12            5.8301    -2.3204     2.2860 C.ar    
  13 C13            6.6702    -2.0826     3.3570 C.ar    
  14 C14            7.1338    -0.8039     3.6143 C.ar    
  15 C15            6.7646     0.2465     2.7984 C.ar    
  16 N16            6.3304     2.1440     0.5054 N.2     
  17 C17            5.6851     2.9818    -0.3208 C.2     
  18 C18            4.4165     2.4715    -0.5330 C.2     
  19 C19            3.3573     3.0581    -1.3764 C.ar    
  20 C20            3.0825     4.4262    -1.3077 C.ar    
  21 C21            2.6284     2.2491    -2.2517 C.ar    
  22 C22            1.6402     2.8044    -3.0374 C.ar    
  23 C23            1.3702     4.1594    -2.9605 C.ar    
  24 C24            2.0913     4.9677    -2.0993 C.ar    
  25 C25            6.2330     4.2295    -0.9020 C.ar    
  26 C26            0.2894     4.7588    -3.8230 C.3     
  27 C27            7.1121     5.0179    -0.1622 C.ar    
  28 C28            7.6210     6.1843    -0.7123 C.ar    
  29 C29            7.2541     6.5638    -1.9976 C.ar    
  30 C30            6.3819     5.7814    -2.7314 C.ar    
  31 C31            5.8749     4.6158    -2.1940 C.ar    
  32 N32           -0.6516     3.7552    -4.3380 N.3     
  33 C33           -0.3979     5.9799    -3.1895 C.3     
  34 C34           -0.3873     6.6141    -4.5904 C.3     
  35 C35            0.8224     5.7169    -4.9013 C.3     
  36 N36            8.5039     6.9797     0.0270 N.am    
  37 C37            8.3786     7.0593     1.3665 C.2     
  38 N38            9.2915     7.7377     2.0896 N.am    
  39 O39            7.4420     6.5191     1.9227 O.2     
  40 C40            9.1050     7.9125     3.4654 C.ar    
  41 C41           10.2014     7.9530     4.3167 C.ar    
  42 C42            7.8233     8.0516     3.9816 C.ar    
  43 C43            7.6425     8.2245     5.3399 C.ar    
  44 C44            8.7361     8.2591     6.1856 C.ar    
  45 C45           10.0139     8.1261     5.6740 C.ar    
  46 H46           -0.1591     0.6121     0.2912 H       
  47 H47            0.1779    -1.8211     0.3755 H       
  48 H48            1.8215     2.1150     0.2223 H       
  49 H49            4.8666    -2.1079    -0.3261 H       
  50 H50            5.4725    -3.3209     2.0924 H       
  51 H51            6.9673    -2.8999     3.9975 H       
  52 H52            7.7865    -0.6275     4.4565 H       
  53 H53            7.1278     1.2432     3.0011 H       
  54 H54            3.6445     5.0581    -0.6360 H       
  55 H55            2.8386     1.1916    -2.3132 H       
  56 H56            1.0759     2.1802    -3.7145 H       
  57 H57            1.8750     6.0244    -2.0443 H       
  58 H58            7.3959     4.7214     0.8368 H       
  59 H59            7.6511     7.4729    -2.4246 H       
  60 H60            6.1000     6.0810    -3.7300 H       
  61 H61            5.1937     4.0071    -2.7703 H       
  62 H62           -0.1602     2.9849    -4.7662 H       
  63 H63           -1.2684     3.4300    -3.6087 H       
  64 H64           -1.3991     5.7706    -2.8125 H       
  65 H65            0.2260     6.5062    -2.4671 H       
  66 H66           -1.2705     6.3773    -5.1836 H       
  67 H67           -0.1519     7.6784    -4.5860 H       
  68 H68            1.7799     6.1714    -4.6470 H       
  69 H69            0.8064     5.2954    -5.9064 H       
  70 H70            9.2060     7.4736    -0.4247 H       
  71 H71           10.0779     8.1049     1.6563 H       
  72 H72           11.1996     7.8489     3.9178 H       
  73 H73            6.9689     8.0250     3.3216 H       
  74 H74            6.6460     8.3330     5.7420 H       
  75 H75            8.5921     8.3947     7.2473 H       
  76 H76           10.8659     8.1532     6.3371 H       
@<TRIPOS>BOND
   1    1    2 ar
   2    1    6 ar
   3    1   46 1
   4    2    3 ar
   5    2   47 1
   6    3    4 ar
   7    4    5 ar
   8    4    7 1
   9    5    6 ar
  10    5   11 1
  11    6   48 1
  12    7    8 1
  13    7   49 1
  14    8    9 ar
  15    8   12 ar
  16    9   10 1
  17    9   15 ar
  18   10   11 1
  19   10   16 2
  20   11   18 1
  21   12   13 ar
  22   12   50 1
  23   13   14 ar
  24   13   51 1
  25   14   15 ar
  26   14   52 1
  27   15   53 1
  28   16   17 1
  29   17   18 2
  30   17   25 1
  31   18   19 1
  32   19   20 ar
  33   19   21 ar
  34   20   24 ar
  35   20   54 1
  36   21   22 ar
  37   21   55 1
  38   22   23 ar
  39   22   56 1
  40   23   24 ar
  41   23   26 1
  42   24   57 1
  43   25   27 ar
  44   25   31 ar
  45   26   33 1
  46   26   32 1
  47   26   35 1
  48   27   28 ar
  49   27   58 1
  50   28   29 ar
  51   28   36 1
  52   29   30 ar
  53   29   59 1
  54   30   31 ar
  55   30   60 1
  56   31   61 1
  57   32   62 1
  58   32   63 1
  59   33   34 1
  60   33   64 1
  61   33   65 1
  62   34   35 1
  63   34   66 1
  64   34   67 1
  65   35   68 1
  66   35   69 1
  67   36   37 am
  68   36   70 1
  69   37   38 am
  70   37   39 2
  71   38   40 1
  72   38   71 1
  73   40   41 ar
  74   40   42 ar
  75   41   45 ar
  76   41   72 1
  77   42   43 ar
  78   42   73 1
  79   43   44 ar
  80   43   74 1
  81   44   45 ar
  82   44   75 1
  83   45   76 1

#	End of record

