#	Name: ASD03090177
#	Creating user name:	WinNT
#	Creation time:	15. 06. 2019 20:28

#	Modifying user name:	WinNT
#	Modification time:	15. 06. 2019 20:28

#	Program:	/corina/corina34_cracker 3.40 0067  02.08.2006

@<TRIPOS>MOLECULE
ASD03090177
  51   54    0    0    0
SMALL
NO_CHARGES


@<TRIPOS>ATOM
   1 N1             0.4515     1.5231     1.4726 N.ar    
   2 C2             0.4132     0.1995     1.4401 C.ar    
   3 C3             1.5490    -0.5357     1.1260 C.ar    
   4 C4             2.7362     0.1428     0.8438 C.ar    
   5 C5             2.7268     1.5425     0.8909 C.ar    
   6 C6             1.5563     2.1962     1.2114 C.ar    
   7 C7             3.9721    -0.5978     0.5043 C.2     
   8 N8             5.7587    -3.4408    -0.5343 N.pl3   
   9 C9             4.8348    -4.4331    -0.8779 C.ar    
  10 C10            3.6165    -4.0826    -1.4448 C.ar    
  11 C11            2.7057    -5.0642    -1.7838 C.ar    
  12 C12            3.0067    -6.3967    -1.5588 C.ar    
  13 C13            4.2210    -6.7486    -0.9936 C.ar    
  14 C14            5.1367    -5.7710    -0.6579 C.ar    
  15 N15            4.0399    -1.8534     0.1103 N.2     
  16 C16            5.3122    -2.1886    -0.1077 C.2     
  17 N17            6.0775    -1.1512     0.1440 N.2     
  18 N18            5.2297    -0.1035     0.5382 N.pl3   
  19 C19            5.6296     1.2535     0.9190 C.3     
  20 C20            5.7319     2.1254    -0.3341 C.3     
  21 C21            6.1433     3.5213     0.0576 C.2     
  22 F22            2.1142    -7.3551    -1.8907 F       
  23 N23           -0.7769    -0.4611     1.7241 N.pl3   
  24 C24           -0.8282    -1.9248     1.6904 C.3     
  25 N25            7.3605     3.9661     0.1530 N.2     
  26 O26            7.3565     5.1317     0.4887 O.3     
  27 C27            6.0981     5.5540     0.6440 C.2     
  28 N28            5.3179     4.5371     0.3668 N.2     
  29 C29            5.6594     6.9363     1.0537 C.3     
  30 C30            4.5457    -8.1999    -0.7499 C.3     
  31 F31            5.8174    -8.3033    -0.1761 F       
  32 F32            3.5965    -8.7509     0.1176 F       
  33 F33            4.5247    -8.8929    -1.9650 F       
  34 H34            1.5144    -1.6148     1.1007 H       
  35 H35            3.6256     2.1027     0.6792 H       
  36 H36            1.5431     3.2755     1.2492 H       
  37 H37            6.7098    -3.6226    -0.5924 H       
  38 H38            3.3811    -3.0432    -1.6201 H       
  39 H39            1.7579    -4.7920    -2.2243 H       
  40 H40            6.0836    -6.0459    -0.2172 H       
  41 H41            4.8860     1.6751     1.5953 H       
  42 H42            6.5977     1.2202     1.4186 H       
  43 H43            6.4755     1.7038    -1.0104 H       
  44 H44            4.7637     2.1587    -0.8337 H       
  45 H45           -1.5731     0.0472     1.9444 H       
  46 H46           -1.8358    -2.2589     1.9380 H       
  47 H47           -0.5644    -2.2748     0.6924 H       
  48 H48           -0.1226    -2.3299     2.4158 H       
  49 H49            6.5364     7.5643     1.2105 H       
  50 H50            5.0389     7.3683     0.2684 H       
  51 H51            5.0855     6.8762     1.9784 H       
@<TRIPOS>BOND
   1    1    2 ar
   2    1    6 ar
   3    2    3 ar
   4    2   23 1
   5    3    4 ar
   6    3   34 1
   7    4    5 ar
   8    4    7 1
   9    5    6 ar
  10    5   35 1
  11    6   36 1
  12    7   15 2
  13    7   18 1
  14    8    9 1
  15    8   16 1
  16    8   37 1
  17    9   10 ar
  18    9   14 ar
  19   10   11 ar
  20   10   38 1
  21   11   12 ar
  22   11   39 1
  23   12   13 ar
  24   12   22 1
  25   13   14 ar
  26   13   30 1
  27   14   40 1
  28   15   16 1
  29   16   17 2
  30   17   18 1
  31   18   19 1
  32   19   20 1
  33   19   41 1
  34   19   42 1
  35   20   21 1
  36   20   43 1
  37   20   44 1
  38   21   25 2
  39   21   28 1
  40   23   24 1
  41   23   45 1
  42   24   46 1
  43   24   47 1
  44   24   48 1
  45   25   26 1
  46   26   27 1
  47   27   28 2
  48   27   29 1
  49   29   49 1
  50   29   50 1
  51   29   51 1
  52   30   31 1
  53   30   32 1
  54   30   33 1

#	End of record

