#	Name: ASD03331534
#	Creating user name:	WinNT
#	Creation time:	15. 06. 2019 20:39

#	Modifying user name:	WinNT
#	Modification time:	15. 06. 2019 20:39

#	Program:	/corina/corina34_cracker 3.40 0067  02.08.2006

@<TRIPOS>MOLECULE
ASD03331534
  64   66    0    0    0
SMALL
NO_CHARGES


@<TRIPOS>ATOM
   1 C1             1.5905     1.6051    -0.6537 C.ar    
   2 C2             1.7536     0.2387    -0.5604 C.ar    
   3 C3             0.6359    -0.5908    -0.4618 C.ar    
   4 C4            -0.6430    -0.0332    -0.4580 C.ar    
   5 C5            -0.7964     1.3363    -0.5519 C.ar    
   6 C6             0.3193     2.1558    -0.6497 C.ar    
   7 C7             0.8064    -2.0568    -0.3621 C.2     
   8 N8             1.9226    -2.7553    -0.7249 N.pl3   
   9 C9             1.6717    -4.0700    -0.4896 C.2     
  10 C10            0.4144    -4.1540     0.0271 C.2     
  11 N11           -0.0873    -2.9016     0.0949 N.2     
  12 C12            3.1678    -2.1953    -1.2578 C.3     
  13 C13            3.8596    -3.2387    -2.1381 C.3     
  14 C14            4.7936    -4.0982    -1.2876 C.3     
  15 C15            4.0039    -4.8503    -0.2210 C.3     
  16 C16            2.6183    -5.2078    -0.7678 C.3     
  17 C17           -0.2736    -5.3892     0.4422 C.2     
  18 O18            0.2873    -6.4631     0.3352 O.2     
  19 N19           -1.5245    -5.3290     0.9403 N.am    
  20 F20            0.1652     3.4949    -0.7417 F       
  21 F21           -2.0338     1.8786    -0.5484 F       
  22 C22           -2.2085    -6.5570     1.3529 C.3     
  23 C23           -3.6995    -6.3501     1.2807 C.2     
  24 C24           -2.1063    -5.7132     3.7024 C.3     
  25 N25           -4.5149    -7.3981     1.0499 N.am    
  26 O26           -4.1657    -5.2405     1.4303 O.2     
  27 C27           -1.8108    -6.9045     2.7889 C.3     
  28 C28           -2.6122    -8.1197     3.2602 C.3     
  29 C29           -0.3163    -7.2280     2.8401 C.3     
  30 C30           -5.9533    -7.1823     0.8742 C.3     
  31 C31           -6.2408    -6.8250    -0.5855 C.3     
  32 C32           -6.7097    -8.4594     1.2451 C.3     
  33 H33            2.4558     2.2475    -0.7256 H       
  34 H34            2.7454    -0.1888    -0.5641 H       
  35 H35           -1.5112    -0.6711    -0.3822 H       
  36 H36            2.9430    -1.3098    -1.8522 H       
  37 H37            3.8258    -1.9221    -0.4328 H       
  38 H38            3.1074    -3.8745    -2.6052 H       
  39 H39            4.4369    -2.7338    -2.9125 H       
  40 H40            5.3067    -4.8152    -1.9285 H       
  41 H41            5.5321    -3.4582    -0.8048 H       
  42 H42            4.5350    -5.7634     0.0480 H       
  43 H43            3.8945    -4.2203     0.6618 H       
  44 H44            2.2555    -6.1118    -0.2787 H       
  45 H45            2.6825    -5.3741    -1.8431 H       
  46 H46           -1.9719    -4.4726     1.0256 H       
  47 H47           -1.9224    -7.3729     0.6892 H       
  48 H48           -3.1711    -5.4827     3.6659 H       
  49 H49           -1.8230    -5.9607     4.7254 H       
  50 H50           -1.5355    -4.8475     3.3666 H       
  51 H51           -4.1495    -8.2952     1.0001 H       
  52 H52           -2.3597    -8.9826     2.6441 H       
  53 H53           -2.3699    -8.3331     4.3013 H       
  54 H54           -3.6779    -7.9089     3.1711 H       
  55 H55            0.2546    -6.3623     2.5044 H       
  56 H56           -0.0330    -7.4756     3.8631 H       
  57 H57           -0.1058    -8.0767     2.1894 H       
  58 H58           -6.2797    -6.3664     1.5190 H       
  59 H59           -5.9143    -7.6409    -1.2303 H       
  60 H60           -7.3109    -6.6644    -0.7162 H       
  61 H61           -5.7019    -5.9151    -0.8497 H       
  62 H62           -6.5048    -8.7140     2.2850 H       
  63 H63           -7.7798    -8.2989     1.1144 H       
  64 H64           -6.3832    -9.2753     0.6003 H       
@<TRIPOS>BOND
   1    1    2 ar
   2    1    6 ar
   3    1   33 1
   4    2    3 ar
   5    2   34 1
   6    3    4 ar
   7    3    7 1
   8    4    5 ar
   9    4   35 1
  10    5    6 ar
  11    5   21 1
  12    6   20 1
  13    7    8 1
  14    7   11 2
  15    8    9 1
  16    8   12 1
  17    9   10 2
  18    9   16 1
  19   10   11 1
  20   10   17 1
  21   12   13 1
  22   12   36 1
  23   12   37 1
  24   13   14 1
  25   13   38 1
  26   13   39 1
  27   14   15 1
  28   14   40 1
  29   14   41 1
  30   15   16 1
  31   15   42 1
  32   15   43 1
  33   16   44 1
  34   16   45 1
  35   17   18 2
  36   17   19 am
  37   19   22 1
  38   19   46 1
  39   22   27 1
  40   22   23 1
  41   22   47 1
  42   23   25 am
  43   23   26 2
  44   24   27 1
  45   24   48 1
  46   24   49 1
  47   24   50 1
  48   25   30 1
  49   25   51 1
  50   27   28 1
  51   27   29 1
  52   28   52 1
  53   28   53 1
  54   28   54 1
  55   29   55 1
  56   29   56 1
  57   29   57 1
  58   30   31 1
  59   30   32 1
  60   30   58 1
  61   31   59 1
  62   31   60 1
  63   31   61 1
  64   32   62 1
  65   32   63 1
  66   32   64 1

#	End of record

