#	Name: ASD03930149
#	Creating user name:	WinNT
#	Creation time:	15. 06. 2019 20:47

#	Modifying user name:	WinNT
#	Modification time:	15. 06. 2019 20:47

#	Program:	/corina/corina34_cracker 3.40 0067  02.08.2006

@<TRIPOS>MOLECULE
ASD03930149
  43   45    0    0    0
SMALL
NO_CHARGES


@<TRIPOS>ATOM
   1 C1            -0.0189     1.5391     0.0105 C.3     
   2 C2             0.0021    -0.0041     0.0020 C.3     
   3 C3             1.3626    -0.3210     0.6579 C.3     
   4 C4             2.2313     0.8854     0.3713 C.ar    
   5 C5             3.6044     1.0321     0.4322 C.ar    
   6 C6             4.1914     2.2580     0.1191 C.ar    
   7 C7             3.3842     3.3339    -0.2561 C.ar    
   8 C8             2.0166     3.1760    -0.3138 C.ar    
   9 C9             1.4369     1.9555    -0.0012 C.ar    
  10 C10            5.6586     2.4175     0.1845 C.2     
  11 O11            6.3575     1.4794     0.5117 O.2     
  12 O12            6.2215     3.6032    -0.1187 O.3     
  13 N13           -1.1000    -0.5441     0.8020 N.am    
  14 C14           -2.3117    -0.7295     0.2417 C.2     
  15 O15           -2.4900    -0.4487    -0.9270 O.2     
  16 O16           -3.3245    -1.2259     0.9769 O.3     
  17 C17           -4.6015    -1.3990     0.3079 C.3     
  18 C18           -5.6062    -1.9604     1.2808 C.ar    
  19 C19           -6.3827    -1.1070     2.0421 C.ar    
  20 C20           -7.3042    -1.6220     2.9345 C.ar    
  21 C21           -7.4496    -2.9904     3.0653 C.ar    
  22 C22           -6.6738    -3.8439     2.3034 C.ar    
  23 C23           -5.7553    -3.3288     1.4078 C.ar    
  24 C24            7.6685     3.6872    -0.0329 C.3     
  25 H25           -0.5269     1.9153    -0.8774 H       
  26 H26           -0.5099     1.9057     0.9120 H       
  27 H27           -0.0346    -0.3864    -1.0181 H       
  28 H28            1.2424    -0.4536     1.7331 H       
  29 H29            1.7983    -1.2152     0.2122 H       
  30 H30            4.2236     0.1963     0.7230 H       
  31 H31            3.8302     4.2868    -0.4999 H       
  32 H32            1.3921     4.0081    -0.6036 H       
  33 H33           -0.9576    -0.7683     1.7349 H       
  34 H34           -4.9522    -0.4351    -0.0608 H       
  35 H35           -4.4828    -2.0869    -0.5293 H       
  36 H36           -6.2691    -0.0378     1.9399 H       
  37 H37           -7.9104    -0.9552     3.5298 H       
  38 H38           -8.1691    -3.3928     3.7631 H       
  39 H39           -6.7871    -4.9130     2.4058 H       
  40 H40           -5.1517    -3.9956     0.8098 H       
  41 H41            7.9907     4.6931    -0.3019 H       
  42 H42            7.9856     3.4645     0.9860 H       
  43 H43            8.1156     2.9670    -0.7181 H       
@<TRIPOS>BOND
   1    1    2 1
   2    1    9 1
   3    1   25 1
   4    1   26 1
   5    2    3 1
   6    2   13 1
   7    2   27 1
   8    3    4 1
   9    3   28 1
  10    3   29 1
  11    4    5 ar
  12    4    9 ar
  13    5    6 ar
  14    5   30 1
  15    6    7 ar
  16    6   10 1
  17    7    8 ar
  18    7   31 1
  19    8    9 ar
  20    8   32 1
  21   10   11 2
  22   10   12 1
  23   12   24 1
  24   13   14 am
  25   13   33 1
  26   14   15 2
  27   14   16 1
  28   16   17 1
  29   17   18 1
  30   17   34 1
  31   17   35 1
  32   18   19 ar
  33   18   23 ar
  34   19   20 ar
  35   19   36 1
  36   20   21 ar
  37   20   37 1
  38   21   22 ar
  39   21   38 1
  40   22   23 ar
  41   22   39 1
  42   23   40 1
  43   24   41 1
  44   24   42 1
  45   24   43 1

#	End of record

