#	Name: ASD01810354
#	Creating user name:	WinNT
#	Creation time:	15. 06. 2019 19:24

#	Modifying user name:	WinNT
#	Modification time:	15. 06. 2019 19:24

#	Program:	/corina/corina34_cracker 3.40 0067  02.08.2006

@<TRIPOS>MOLECULE
ASD01810354
  42   44    0    0    0
SMALL
NO_CHARGES


@<TRIPOS>ATOM
   1 C1            -0.0160     1.3866     0.0807 C.ar    
   2 C2             0.0017    -0.0010     0.0583 C.ar    
   3 C3             1.1944    -0.6890     0.0212 C.ar    
   4 C4             2.3999     0.0084     0.0059 C.ar    
   5 C5             2.3792     1.4131     0.0286 C.ar    
   6 C6             1.1638     2.0967     0.0660 C.ar    
   7 N7             3.5997    -0.6682    -0.0307 N.pl3   
   8 C8             4.7848    -0.0440    -0.0459 C.2     
   9 C9             4.8917     1.3311    -0.0259 C.2     
  10 C10            3.6627     2.1393     0.0119 C.2     
  11 O11            3.7037     3.3571     0.0308 O.2     
  12 C12            6.2127     1.9790    -0.0427 C.2     
  13 C13            3.5783    -2.1329    -0.0534 C.3     
  14 C14            3.5404    -2.6126    -1.4815 C.ar    
  15 C15            4.7207    -2.8494    -2.1615 C.ar    
  16 C16            4.6887    -3.2892    -3.4707 C.ar    
  17 C17            3.4708    -3.4933    -4.1030 C.ar    
  18 C18            2.2879    -3.2550    -3.4185 C.ar    
  19 C19            2.3253    -2.8207    -2.1076 C.ar    
  20 N20            6.3043     3.3202    -0.1377 N.am    
  21 O21            7.2221     1.3040     0.0291 O.2     
  22 S22            7.7815     4.0596    -0.0213 S.o2    
  23 *23            8.7618     3.5251    -1.4459 Du      
  24 O24            7.5487     5.4507    -0.1937 O.2     
  25 O25            8.4139     3.5140     1.1283 O.2     
  26 O26            3.4367    -3.9255    -5.3910 O.3     
  27 C27            2.1475    -4.1139    -5.9781 C.3     
  28 H28           -0.9594     1.9119     0.1052 H       
  29 H29           -0.9298    -0.5473     0.0704 H       
  30 H30            1.1947    -1.7689     0.0044 H       
  31 H31            1.1482     3.1765     0.0831 H       
  32 H32            5.6868    -0.6372    -0.0743 H       
  33 H33            4.4738    -2.5170     0.4353 H       
  34 H34            2.6944    -2.4916     0.4740 H       
  35 H35            5.6686    -2.6901    -1.6690 H       
  36 H36            5.6109    -3.4737    -4.0016 H       
  37 H37            1.3386    -3.4132    -3.9086 H       
  38 H38            1.4048    -2.6350    -1.5743 H       
  39 H39            5.5050     3.8525    -0.2741 H       
  40 H40            1.6038    -3.1693    -5.9717 H       
  41 H41            2.2631    -4.4596    -7.0054 H       
  42 H42            1.5924    -4.8566    -5.4051 H       
@<TRIPOS>BOND
   1    1    2 ar
   2    1    6 ar
   3    1   28 1
   4    2    3 ar
   5    2   29 1
   6    3    4 ar
   7    3   30 1
   8    4    5 ar
   9    4    7 1
  10    5    6 ar
  11    5   10 1
  12    6   31 1
  13    7    8 1
  14    7   13 1
  15    8    9 2
  16    8   32 1
  17    9   10 1
  18    9   12 1
  19   10   11 2
  20   12   20 am
  21   12   21 2
  22   13   14 1
  23   13   33 1
  24   13   34 1
  25   14   15 ar
  26   14   19 ar
  27   15   16 ar
  28   15   35 1
  29   16   17 ar
  30   16   36 1
  31   17   26 1
  32   17   18 ar
  33   18   19 ar
  34   18   37 1
  35   19   38 1
  36   20   22 am
  37   20   39 1
  38   22   23 1
  39   22   24 2
  40   22   25 2
  41   26   27 1
  42   27   40 1
  43   27   41 1
  44   27   42 1

#	End of record

