#	Name: ASD01410412
#	Creating user name:	WinNT
#	Creation time:	15. 06. 2019 19:17

#	Modifying user name:	WinNT
#	Modification time:	15. 06. 2019 19:17

#	Program:	/corina/corina34_cracker 3.40 0067  02.08.2006

@<TRIPOS>MOLECULE
ASD01410412
  36   38    0    0    0
SMALL
NO_CHARGES


@<TRIPOS>ATOM
   1 S1            -0.0221     1.7692     0.0473 S.3     
   2 C2            -0.0029     0.0150     0.2993 C.2     
   3 N3             1.2794    -0.3467     0.4202 N.am    
   4 C4             2.2265     0.5730     0.3396 C.2     
   5 C5             1.7430     1.9416     0.1178 C.2     
   6 S6            -1.3653    -1.0190     0.3743 S.2     
   7 O7             3.4093     0.3052     0.4421 O.2     
   8 N8             1.6166    -1.6901     0.6310 N.am    
   9 S9             1.8928    -2.6872    -0.6620 S.o2    
  10 O10            2.3544    -3.9199    -0.1266 O.2     
  11 O11            0.7501    -2.5832    -1.5002 O.2     
  12 C12            3.2395    -2.0036    -1.5696 C.ar    
  13 C13            4.5361    -2.3756    -1.2677 C.ar    
  14 C14            5.5926    -1.8393    -1.9797 C.ar    
  15 C15            5.3525    -0.9312    -2.9939 C.ar    
  16 C16            4.0558    -0.5598    -3.2964 C.ar    
  17 C17            2.9990    -1.0994    -2.5872 C.ar    
  18 C18            2.4764     3.0765    -0.0051 C.2     
  19 C19            1.8471     6.7093    -0.7065 C.ar    
  20 C20            0.5354     6.8385    -0.2867 C.ar    
  21 C21            2.4873     5.4885    -0.6185 C.ar    
  22 C22            1.8038     4.3789    -0.1020 C.ar    
  23 C23            0.4771     4.5187     0.3203 C.ar    
  24 C24           -0.1477     5.7460     0.2254 C.ar    
  25 F25            3.7682     5.3640    -1.0295 F       
  26 F26           -1.4285     5.8831     0.6330 F       
  27 H27            1.6883    -2.0361     1.5343 H       
  28 H28            4.7238    -3.0851    -0.4754 H       
  29 H29            6.6057    -2.1294    -1.7434 H       
  30 H30            6.1780    -0.5116    -3.5497 H       
  31 H31            3.8681     0.1500    -4.0885 H       
  32 H32            1.9856    -0.8121    -2.8260 H       
  33 H33            3.5547     3.0223    -0.0316 H       
  34 H34            2.3706     7.5642    -1.1083 H       
  35 H35            0.0407     7.7959    -0.3579 H       
  36 H36           -0.0565     3.6688     0.7194 H       
@<TRIPOS>BOND
   1    1    2 1
   2    1    5 1
   3    2    3 am
   4    2    6 2
   5    3    4 am
   6    3    8 1
   7    4    5 1
   8    4    7 2
   9    5   18 2
  10    8    9 am
  11    8   27 1
  12    9   10 2
  13    9   11 2
  14    9   12 1
  15   12   13 ar
  16   12   17 ar
  17   13   14 ar
  18   13   28 1
  19   14   15 ar
  20   14   29 1
  21   15   16 ar
  22   15   30 1
  23   16   17 ar
  24   16   31 1
  25   17   32 1
  26   18   22 1
  27   18   33 1
  28   19   20 ar
  29   19   21 ar
  30   19   34 1
  31   20   24 ar
  32   20   35 1
  33   21   22 ar
  34   21   25 1
  35   22   23 ar
  36   23   24 ar
  37   23   36 1
  38   24   26 1

#	End of record

