#	Name: ASD07301029
#	Creating user name:	WinNT
#	Creation time:	15. 06. 2019 21:10

#	Modifying user name:	WinNT
#	Modification time:	15. 06. 2019 21:10

#	Program:	/corina/corina34_cracker 3.40 0067  02.08.2006

@<TRIPOS>MOLECULE
ASD07301029
  35   36    0    0    0
SMALL
NO_CHARGES


@<TRIPOS>ATOM
   1 C1            -0.0341     1.4626    -0.1357 C.2     
   2 C2            -0.0011    -0.0025    -0.0193 C.2     
   3 C3             1.2780    -0.7089    -0.0453 C.2     
   4 C4             1.3119    -2.2108     0.0740 C.3     
   5 O5             1.0028     2.0970    -0.1227 O.2     
   6 O6            -1.2141     2.1023    -0.2624 O.3     
   7 N7            -1.1286    -0.6812     0.1090 N.2     
   8 N8            -2.2376    -0.0560     0.3171 N.pl3   
   9 O9            -6.8682    -3.0519     0.3063 O.3     
  10 C10           -6.2505    -4.3432     0.4618 C.3     
  11 O11           -4.9225    -4.1526    -0.0608 O.3     
  12 C12           -4.6464    -2.8274     0.1198 C.ar    
  13 C13           -5.8436    -2.1503     0.3457 C.ar    
  14 C14           -3.4505    -2.1317     0.1108 C.ar    
  15 C15           -3.4437    -0.7584     0.3261 C.ar    
  16 C16           -4.6404    -0.0846     0.5510 C.ar    
  17 C17           -5.8351    -0.7810     0.5607 C.ar    
  18 F18           -4.6350     1.2501     0.7604 F       
  19 F19           -6.2001    -4.7044     1.8124 F       
  20 F20           -6.9372    -5.3092    -0.2814 F       
  21 O21            2.3131    -0.0859    -0.1631 O.2     
  22 O22            2.6667    -2.6623     0.0224 O.3     
  23 C23            2.8114    -4.0800     0.1277 C.3     
  24 C24           -1.1709     3.5495    -0.3724 C.3     
  25 H25            0.8651    -2.5101     1.0220 H       
  26 H26            0.7499    -2.6534    -0.7484 H       
  27 H27           -2.2333     0.9023     0.4674 H       
  28 H28           -2.5223    -2.6555    -0.0639 H       
  29 H29           -6.7631    -0.2570     0.7357 H       
  30 H30            2.3956    -4.4181     1.0768 H       
  31 H31            2.2804    -4.5614    -0.6936 H       
  32 H32            3.8684    -4.3419     0.0801 H       
  33 H33           -2.1852     3.9369    -0.4687 H       
  34 H34           -0.7053     3.9679     0.5198 H       
  35 H35           -0.5899     3.8299    -1.2510 H       
@<TRIPOS>BOND
   1    1    2 1
   2    1    5 2
   3    1    6 1
   4    2    3 1
   5    2    7 2
   6    3    4 1
   7    3   21 2
   8    4   22 1
   9    4   25 1
  10    4   26 1
  11    6   24 1
  12    7    8 1
  13    8   15 1
  14    8   27 1
  15    9   10 1
  16    9   13 1
  17   10   11 1
  18   10   19 1
  19   10   20 1
  20   11   12 1
  21   12   13 ar
  22   12   14 ar
  23   13   17 ar
  24   14   15 ar
  25   14   28 1
  26   15   16 ar
  27   16   17 ar
  28   16   18 1
  29   17   29 1
  30   22   23 1
  31   23   30 1
  32   23   31 1
  33   23   32 1
  34   24   33 1
  35   24   34 1
  36   24   35 1

#	End of record

