#	Name: ASD01884500
#	Creating user name:	WinNT
#	Creation time:	15. 06. 2019 19:48

#	Modifying user name:	WinNT
#	Modification time:	15. 06. 2019 19:48

#	Program:	/corina/corina34_cracker 3.40 0067  02.08.2006

@<TRIPOS>MOLECULE
ASD01884500
  39   42    0    0    0
SMALL
NO_CHARGES


@<TRIPOS>ATOM
   1 C1            -0.0164     1.3573     0.0095 C.2     
   2 C2             0.0021    -0.0041     0.0020 C.2     
   3 C3             1.2445    -0.6750    -0.0134 C.2     
   4 C4             2.4032     0.0473    -0.0206 C.2     
   5 N5             2.3704     1.4024    -0.0126 N.am    
   6 C6             1.1989     2.0650     0.0017 C.2     
   7 C7             3.6267     2.1558    -0.0201 C.3     
   8 O8             1.1913     3.2853     0.0087 O.2     
   9 C9             4.0442     2.4222    -1.4434 C.ar    
  10 C10            3.6199     3.5713    -2.0843 C.ar    
  11 C11            4.0025     3.8162    -3.3896 C.ar    
  12 C12            4.8103     2.9111    -4.0549 C.ar    
  13 C13            5.2346     1.7613    -3.4129 C.ar    
  14 C14            4.8560     1.5203    -2.1056 C.ar    
  15 Cl15           5.2908     3.2178    -5.6946 Cl      
  16 C16            1.2906    -2.1574    -0.0214 C.ar    
  17 C17            0.8156    -2.8637     1.0675 C.ar    
  18 C18            1.8116    -2.8323    -1.1381 C.ar    
  19 C19            1.8643    -4.1884    -1.1697 C.ar    
  20 C20            1.3937    -4.9372    -0.0752 C.ar    
  21 C21            0.8613    -4.2665     1.0555 C.ar    
  22 N22            1.4375    -6.2737    -0.0881 N.ar    
  23 C23            0.9925    -6.9508     0.9459 C.ar    
  24 C24            0.4730    -6.2906     2.0612 C.ar    
  25 N25            0.4145    -4.9789     2.0968 N.ar    
  26 H26           -0.9563     1.8892     0.0169 H       
  27 H27           -0.9217    -0.5636     0.0082 H       
  28 H28            3.3538    -0.4653    -0.0325 H       
  29 H29            3.4855     3.1030     0.5005 H       
  30 H30            4.4008     1.5765     0.4832 H       
  31 H31            2.9891     4.2775    -1.5650 H       
  32 H32            3.6707     4.7137    -3.8904 H       
  33 H33            5.8652     1.0545    -3.9317 H       
  34 H34            5.1872     0.6228    -1.6044 H       
  35 H35            0.4124    -2.3399     1.9216 H       
  36 H36            2.1745    -2.2649    -1.9823 H       
  37 H37            2.2673    -4.6929    -2.0355 H       
  38 H38            1.0285    -8.0301     0.9330 H       
  39 H39            0.1119    -6.8646     2.9018 H       
@<TRIPOS>BOND
   1    1    2 2
   2    1    6 1
   3    1   26 1
   4    2    3 1
   5    2   27 1
   6    3    4 2
   7    3   16 1
   8    4    5 1
   9    4   28 1
  10    5    6 am
  11    5    7 1
  12    6    8 2
  13    7    9 1
  14    7   29 1
  15    7   30 1
  16    9   10 ar
  17    9   14 ar
  18   10   11 ar
  19   10   31 1
  20   11   12 ar
  21   11   32 1
  22   12   13 ar
  23   12   15 1
  24   13   14 ar
  25   13   33 1
  26   14   34 1
  27   16   17 ar
  28   16   18 ar
  29   17   21 ar
  30   17   35 1
  31   18   19 ar
  32   18   36 1
  33   19   20 ar
  34   19   37 1
  35   20   21 ar
  36   20   22 ar
  37   21   25 ar
  38   22   23 ar
  39   23   24 ar
  40   23   38 1
  41   24   25 ar
  42   24   39 1

#	End of record

