#	Name: ASD01871013
#	Creating user name:	WinNT
#	Creation time:	15. 06. 2019 19:39

#	Modifying user name:	WinNT
#	Modification time:	15. 06. 2019 19:39

#	Program:	/corina/corina34_cracker 3.40 0067  02.08.2006

@<TRIPOS>MOLECULE
ASD01871013
  22   22    0    0    0
SMALL
NO_CHARGES


@<TRIPOS>ATOM
   1 C1            -0.0184     1.5028     0.0103 C.2     
   2 C2             0.0021    -0.0041     0.0020 C.3     
   3 O3             1.0197     2.1211     0.0037 O.2     
   4 O4            -1.1898     2.1580     0.0194 O.3     
   5 N5             1.3897    -0.4735    -0.0138 N.pl3   
   6 C6             1.6635    -1.8430    -0.0237 C.ar    
   7 C7             2.9786    -2.2884    -0.0387 C.ar    
   8 C8             3.2495    -3.6480    -0.0481 C.ar    
   9 C9             2.2073    -4.5632    -0.0426 C.ar    
  10 C10            0.8935    -4.1192    -0.0281 C.ar    
  11 C11            0.6208    -2.7600    -0.0129 C.ar    
  12 O12           -0.1269    -5.0167    -0.0236 O.3     
  13 O13            4.5364    -4.0841    -0.0632 O.3     
  14 H14           -0.4983    -0.3791     0.8948 H       
  15 H15           -0.5153    -0.3696    -0.8850 H       
  16 H16           -1.1523     3.1243     0.0245 H       
  17 H17            2.1184     0.1668    -0.0173 H       
  18 H18            3.7902    -1.5759    -0.0433 H       
  19 H19            2.4191    -5.6222    -0.0499 H       
  20 H20           -0.4022    -2.4144     0.0029 H       
  21 H21           -0.4141    -5.2813     0.8611 H       
  22 H22            4.9178    -4.2147     0.8158 H       
@<TRIPOS>BOND
   1    1    2 1
   2    1    3 2
   3    1    4 1
   4    2    5 1
   5    2   14 1
   6    2   15 1
   7    4   16 1
   8    5    6 1
   9    5   17 1
  10    6    7 ar
  11    6   11 ar
  12    7    8 ar
  13    7   18 1
  14    8    9 ar
  15    8   13 1
  16    9   10 ar
  17    9   19 1
  18   10   11 ar
  19   10   12 1
  20   11   20 1
  21   12   21 1
  22   13   22 1

#	End of record

