#	Name: ASD01911483
#	Creating user name:	WinNT
#	Creation time:	15. 06. 2019 19:57

#	Modifying user name:	WinNT
#	Modification time:	15. 06. 2019 19:57

#	Program:	/corina/corina34_cracker 3.40 0067  02.08.2006

@<TRIPOS>MOLECULE
ASD01911483
  30   31    0    0    0
SMALL
NO_CHARGES


@<TRIPOS>ATOM
   1 C1             0.0040     1.3323    -0.2119 C.2     
   2 N2             0.0173    -0.0063    -0.1652 N.am    
   3 C3             1.3857    -0.4665     0.1144 C.3     
   4 C4             2.1979     0.8382     0.2283 C.3     
   5 N5             1.2009     1.8949     0.0008 N.am    
   6 O6            -1.0022     1.9779    -0.4326 O.2     
   7 C7             1.4321    -1.2446     1.4309 C.3     
   8 C8             1.9092    -1.3261    -1.0379 C.3     
   9 C9            -1.1466    -0.8741    -0.3615 C.3     
  10 C10            1.4601     3.2647     0.0057 C.ar    
  11 C11            0.4014     4.1659     0.0206 C.ar    
  12 C12            0.6725     5.5226     0.0258 C.ar    
  13 C13            1.9993     5.9331     0.0157 C.ar    
  14 C14            3.0010     4.9823     0.0010 C.ar    
  15 N15            2.7116     3.6950     0.0015 N.ar    
  16 I16            2.4762     7.9731     0.0222 I       
  17 H17            2.6343     0.9316     1.2228 H       
  18 H18            2.9741     0.8736    -0.5361 H       
  19 H19            0.7944    -2.1253     1.3551 H       
  20 H20            2.4572    -1.5547     1.6337 H       
  21 H21            1.0779    -0.6082     2.2419 H       
  22 H22            1.8900    -0.7470    -1.9611 H       
  23 H23            2.9322    -1.6359    -0.8244 H       
  24 H24            1.2783    -2.2080    -1.1490 H       
  25 H25           -2.0281    -0.2621    -0.5524 H       
  26 H26           -0.9699    -1.5321    -1.2123 H       
  27 H27           -1.3079    -1.4739     0.5343 H       
  28 H28           -0.6188     3.8117     0.0277 H       
  29 H29           -0.1294     6.2459     0.0370 H       
  30 H30            4.0342     5.2965    -0.0071 H       
@<TRIPOS>BOND
   1    1    2 am
   2    1    5 am
   3    1    6 2
   4    2    3 1
   5    2    9 1
   6    3    4 1
   7    3    7 1
   8    3    8 1
   9    4    5 1
  10    4   17 1
  11    4   18 1
  12    5   10 1
  13    7   19 1
  14    7   20 1
  15    7   21 1
  16    8   22 1
  17    8   23 1
  18    8   24 1
  19    9   25 1
  20    9   26 1
  21    9   27 1
  22   10   11 ar
  23   10   15 ar
  24   11   12 ar
  25   11   28 1
  26   12   13 ar
  27   12   29 1
  28   13   14 ar
  29   13   16 1
  30   14   15 ar
  31   14   30 1

#	End of record

