#	Name: ASD01815957
#	Creating user name:	WinNT
#	Creation time:	15. 06. 2019 19:34

#	Modifying user name:	WinNT
#	Modification time:	15. 06. 2019 19:34

#	Program:	/corina/corina34_cracker 3.40 0067  02.08.2006

@<TRIPOS>MOLECULE
ASD01815957
  51   56    0    0    0
SMALL
NO_CHARGES


@<TRIPOS>ATOM
   1 C1             1.1860     2.2606    -0.5294 C.ar    
   2 C2             0.8021     0.9297    -0.5130 C.ar    
   3 C3             1.7403    -0.0717    -0.3557 C.ar    
   4 C4             3.0871     0.2504    -0.2120 C.ar    
   5 C5             3.4735     1.6003    -0.2295 C.ar    
   6 C6             2.5177     2.6016    -0.3884 C.ar    
   7 N7             4.0327    -0.7492    -0.0535 N.pl3   
   8 C8             5.3438    -0.4990     0.0897 C.2     
   9 C9             5.8386     0.7816     0.0883 C.2     
  10 C10            4.9054     1.9195    -0.0758 C.2     
  11 C11            7.1599     1.3884     0.2164 C.2     
  12 N12            6.9710     2.7229     0.1314 N.am    
  13 N13            5.6150     3.0109    -0.0429 N.2     
  14 C14            7.9894     3.6816     0.2067 C.ar    
  15 O15            8.2216     0.8068     0.3702 O.2     
  16 C16            3.5814    -2.1429    -0.0411 C.3     
  17 C17            3.4352    -2.6362    -1.4576 C.ar    
  18 C18            4.5182    -2.5899    -2.3200 C.ar    
  19 C19            4.3881    -3.0415    -3.6204 C.ar    
  20 C20            3.1660    -3.5434    -4.0609 C.ar    
  21 C21            2.0805    -3.5877    -3.1880 C.ar    
  22 C22            2.2217    -3.1390    -1.8905 C.ar    
  23 F23            2.8912     3.8999    -0.4050 F       
  24 F24            1.3505    -1.3652    -0.3408 F       
  25 C25            8.7065     4.0259    -0.9313 C.ar    
  26 C26            9.7103     4.9716    -0.8540 C.ar    
  27 C27           10.0024     5.5762     0.3550 C.ar    
  28 C28            9.2912     5.2369     1.4912 C.ar    
  29 C29            8.2809     4.2950     1.4203 C.ar    
  30 F30            7.5859     3.9633     2.5303 F       
  31 F31            5.7027    -2.1025    -1.8902 F       
  32 C32            3.0199    -4.0293    -5.4558 C.2     
  33 C33            3.9760    -4.0522    -6.4197 C.2     
  34 O34            3.4408    -4.5659    -7.5367 O.3     
  35 C35            2.1525    -4.8861    -7.3425 C.2     
  36 C36            1.8144    -4.5899    -6.0762 C.2     
  37 H37            0.4428     3.0337    -0.6572 H       
  38 H38           -0.2410     0.6726    -0.6239 H       
  39 H39            6.0271    -1.3267     0.2096 H       
  40 H40            4.3131    -2.7571     0.4838 H       
  41 H41            2.6197    -2.2090     0.4677 H       
  42 H42            5.2323    -3.0047    -4.2930 H       
  43 H43            1.1310    -3.9761    -3.5254 H       
  44 H44            1.3805    -3.1733    -1.2141 H       
  45 H45            8.4799     3.5544    -1.8761 H       
  46 H46           10.2683     5.2390    -1.7392 H       
  47 H47           10.7881     6.3150     0.4119 H       
  48 H48            9.5221     5.7107     2.4339 H       
  49 H49            4.9952    -3.7135    -6.3061 H       
  50 H50            1.4945    -5.3162    -8.0832 H       
  51 H51            0.8497    -4.7302    -5.6114 H       
@<TRIPOS>BOND
   1    1    2 ar
   2    1    6 ar
   3    1   37 1
   4    2    3 ar
   5    2   38 1
   6    3    4 ar
   7    3   24 1
   8    4    5 ar
   9    4    7 1
  10    5    6 ar
  11    5   10 1
  12    6   23 1
  13    7    8 1
  14    7   16 1
  15    8    9 2
  16    8   39 1
  17    9   10 1
  18    9   11 1
  19   10   13 2
  20   11   12 am
  21   11   15 2
  22   12   13 1
  23   12   14 1
  24   14   25 ar
  25   14   29 ar
  26   16   17 1
  27   16   40 1
  28   16   41 1
  29   17   18 ar
  30   17   22 ar
  31   18   19 ar
  32   18   31 1
  33   19   20 ar
  34   19   42 1
  35   20   21 ar
  36   20   32 1
  37   21   22 ar
  38   21   43 1
  39   22   44 1
  40   25   26 ar
  41   25   45 1
  42   26   27 ar
  43   26   46 1
  44   27   28 ar
  45   27   47 1
  46   28   29 ar
  47   28   48 1
  48   29   30 1
  49   32   33 2
  50   32   36 1
  51   33   34 1
  52   33   49 1
  53   34   35 1
  54   35   36 2
  55   35   50 1
  56   36   51 1

#	End of record

