#	Name: ASD01911975
#	Creating user name:	WinNT
#	Creation time:	15. 06. 2019 19:58

#	Modifying user name:	WinNT
#	Modification time:	15. 06. 2019 19:58

#	Program:	/corina/corina34_cracker 3.40 0067  02.08.2006

@<TRIPOS>MOLECULE
ASD01911975
  44   46    0    0    0
SMALL
NO_CHARGES


@<TRIPOS>ATOM
   1 C1            -0.0178     1.4648     0.0101 C.3     
   2 N2             0.0021    -0.0041     0.0020 N.3     
   3 C3             0.6168    -0.5219    -1.2276 C.3     
   4 C4             2.0817    -0.0762    -1.2892 C.3     
   5 N5             2.1320     1.3858    -1.1368 N.am    
   6 C6             1.4210     1.9919    -0.0008 C.3     
   7 C7             2.8120     2.1498    -2.0144 C.2     
   8 C8             2.8504     3.6461    -1.8392 C.3     
   9 O9             3.3930     1.6331    -2.9453 O.2     
  10 O10            3.6276     4.2286    -2.8874 O.3     
  11 C11            3.7280     5.6522    -2.8142 C.3     
  12 C12            4.5648     6.1565    -3.9616 C.ar    
  13 C13            3.9636     6.4918    -5.1604 C.ar    
  14 C14            4.7312     6.9542    -6.2130 C.ar    
  15 C15            6.0998     7.0819    -6.0666 C.ar    
  16 C16            6.7009     6.7474    -4.8675 C.ar    
  17 C17            5.9328     6.2890    -3.8135 C.ar    
  18 C18           -1.2774    -0.5208     0.1754 C.ar    
  19 C19           -1.4669    -1.8985     0.1963 C.ar    
  20 C20           -2.7447    -2.3995     0.3700 C.ar    
  21 C21           -3.7944    -1.5015     0.5175 C.ar    
  22 C22           -3.5332    -0.1451     0.4867 C.ar    
  23 N23           -2.3029     0.3033     0.3244 N.ar    
  24 Cl24          -5.4171    -2.0775     0.7378 Cl      
  25 H25           -0.5443     1.8262    -0.8732 H       
  26 H26           -0.5273     1.8167     0.9071 H       
  27 H27            0.5676    -1.6108    -1.2281 H       
  28 H28            0.0815    -0.1328    -2.0936 H       
  29 H29            2.6422    -0.5480    -0.4822 H       
  30 H30            2.5103    -0.3591    -2.2506 H       
  31 H31            1.4128     3.0763    -0.1104 H       
  32 H32            1.9180     1.7189     0.9301 H       
  33 H33            1.8357     4.0424    -1.8761 H       
  34 H34            3.3001     3.8877    -0.8762 H       
  35 H35            2.7315     6.0901    -2.8713 H       
  36 H36            4.1959     5.9355    -1.8713 H       
  37 H37            2.8943     6.3921    -5.2748 H       
  38 H38            4.2616     7.2155    -7.1498 H       
  39 H39            6.6996     7.4425    -6.8892 H       
  40 H40            7.7702     6.8468    -4.7533 H       
  41 H41            6.4023     6.0277    -2.8767 H       
  42 H42           -0.6279    -2.5682     0.0783 H       
  43 H43           -2.9222    -3.4646     0.3901 H       
  44 H44           -4.3459     0.5571     0.6009 H       
@<TRIPOS>BOND
   1    1    2 1
   2    1    6 1
   3    1   25 1
   4    1   26 1
   5    2    3 1
   6    2   18 1
   7    3    4 1
   8    3   27 1
   9    3   28 1
  10    4    5 1
  11    4   29 1
  12    4   30 1
  13    5    6 1
  14    5    7 am
  15    6   31 1
  16    6   32 1
  17    7    8 1
  18    7    9 2
  19    8   10 1
  20    8   33 1
  21    8   34 1
  22   10   11 1
  23   11   12 1
  24   11   35 1
  25   11   36 1
  26   12   13 ar
  27   12   17 ar
  28   13   14 ar
  29   13   37 1
  30   14   15 ar
  31   14   38 1
  32   15   16 ar
  33   15   39 1
  34   16   17 ar
  35   16   40 1
  36   17   41 1
  37   18   19 ar
  38   18   23 ar
  39   19   20 ar
  40   19   42 1
  41   20   21 ar
  42   20   43 1
  43   21   22 ar
  44   21   24 1
  45   22   23 ar
  46   22   44 1

#	End of record

