#	Name: ASD01941056
#	Creating user name:	WinNT
#	Creation time:	15. 06. 2019 20:13

#	Modifying user name:	WinNT
#	Modification time:	15. 06. 2019 20:13

#	Program:	/corina/corina34_cracker 3.40 0067  02.08.2006

@<TRIPOS>MOLECULE
ASD01941056
  37   39    0    0    0
SMALL
NO_CHARGES


@<TRIPOS>ATOM
   1 C1            -0.8046     1.3261     0.2857 C.3     
   2 C2            -1.2931    -0.0954     0.5668 C.3     
   3 N3            -2.5984    -0.1447     1.2046 N.am    
   4 C4            -2.6813    -0.0497     2.5541 C.2     
   5 C5            -1.4591     0.4072     3.2348 C.2     
   6 C6            -0.7100     1.4595     2.7729 C.2     
   7 C7            -1.0615     2.2127     1.5076 C.3     
   8 O8            -3.6995    -0.3237     3.1628 O.2     
   9 C9             0.6949     1.2985    -0.0167 C.3     
  10 C10           -1.5565     1.8934    -0.9201 C.3     
  11 S11           -0.7225    -0.2299     4.6899 S.3     
  12 C12            0.5069     0.9554     4.5897 C.2     
  13 N13            0.3265     1.7106     3.5455 N.2     
  14 N14            1.5436     1.0914     5.4891 N.pl3   
  15 C15            1.7162     0.1456     6.5060 C.ar    
  16 C16            1.5650    -1.2065     6.2314 C.ar    
  17 C17            1.7360    -2.1382     7.2374 C.ar    
  18 C18            2.0576    -1.7258     8.5176 C.ar    
  19 C19            2.2090    -0.3789     8.7964 C.ar    
  20 C20            2.0455     0.5582     7.7932 C.ar    
  21 F21            2.1937     1.8732     8.0651 F       
  22 I22            2.3155    -3.1433    10.0385 I       
  23 H23           -1.3446    -0.6396    -0.3763 H       
  24 H24           -0.5696    -0.5915     1.2137 H       
  25 H25           -3.4017    -0.2442     0.6700 H       
  26 H26           -0.4480     3.1110     1.4386 H       
  27 H27           -2.1138     2.4955     1.5350 H       
  28 H28            0.8781     0.6717    -0.8894 H       
  29 H29            1.0439     2.3115    -0.2171 H       
  30 H30            1.2311     0.8926     0.8411 H       
  31 H31           -2.6251     1.9115    -0.7062 H       
  32 H32           -1.2089     2.9067    -1.1211 H       
  33 H33           -1.3710     1.2660    -1.7919 H       
  34 H34            2.1530     1.8425     5.4168 H       
  35 H35            1.3135    -1.5301     5.2322 H       
  36 H36            1.6179    -3.1903     7.0236 H       
  37 H37            2.4595    -0.0598     9.7973 H       
@<TRIPOS>BOND
   1    1    2 1
   2    1    9 1
   3    1   10 1
   4    1    7 1
   5    2    3 1
   6    2   23 1
   7    2   24 1
   8    3    4 am
   9    3   25 1
  10    4    5 1
  11    4    8 2
  12    5    6 2
  13    5   11 1
  14    6    7 1
  15    6   13 1
  16    7   26 1
  17    7   27 1
  18    9   28 1
  19    9   29 1
  20    9   30 1
  21   10   31 1
  22   10   32 1
  23   10   33 1
  24   11   12 1
  25   12   13 2
  26   12   14 1
  27   14   15 1
  28   14   34 1
  29   15   16 ar
  30   15   20 ar
  31   16   17 ar
  32   16   35 1
  33   17   18 ar
  34   17   36 1
  35   18   19 ar
  36   18   22 1
  37   19   20 ar
  38   19   37 1
  39   20   21 1

#	End of record

