#	Name: ASD01230832
#	Creating user name:	WinNT
#	Creation time:	15. 06. 2019 19:15

#	Modifying user name:	WinNT
#	Modification time:	15. 06. 2019 19:15

#	Program:	/corina/corina34_cracker 3.40 0067  02.08.2006

@<TRIPOS>MOLECULE
ASD01230832
  46   49    0    0    0
SMALL
NO_CHARGES


@<TRIPOS>ATOM
   1 C1             1.0001    -0.1219    -0.6760 C.3     
   2 C2             1.4265    -1.5122    -0.1967 C.3     
   3 C3             0.3094    -2.5282    -0.3890 C.3     
   4 C4            -1.0747    -1.8963    -0.3386 C.3     
   5 N5            -1.0782    -0.6862     0.4866 N.pl3   
   6 C6            -0.1808     0.3035     0.1797 C.2     
   7 C7            -1.9891    -0.5620     1.6217 C.3     
   8 C8            -2.7615     0.7538     1.5140 C.3     
   9 S9            -1.5894     2.1280     1.3685 S.o2    
  10 N10           -0.3060     1.5223     0.5328 N.am    
  11 C11            2.1370     0.8520    -0.5031 C.ar    
  12 O12           -2.1126     3.1380     0.5168 O.2     
  13 O13           -1.0504     2.4569     2.6415 O.2     
  14 C14            2.6547     1.5108    -1.6030 C.ar    
  15 C15            3.6971     2.4037    -1.4473 C.ar    
  16 C16            4.2244     2.6395    -0.1857 C.ar    
  17 C17            3.7028     1.9774     0.9165 C.ar    
  18 C18            2.6569     1.0894     0.7560 C.ar    
  19 O19            5.2502     3.5171    -0.0299 O.3     
  20 C20            5.6575     4.2220    -1.1179 C.ar    
  21 C21            6.6675     3.7229    -1.9301 C.ar    
  22 C22            7.0862     4.4355    -3.0382 C.ar    
  23 C23            6.5031     5.6480    -3.3451 C.ar    
  24 C24            5.4870     6.1582    -2.5347 C.ar    
  25 C25            5.0615     5.4349    -1.4194 C.ar    
  26 C26            4.8796     7.4161    -2.8500 C.1     
  27 N27            4.3978     8.4140    -3.1001 N.1     
  28 H28            0.7043    -0.1650    -1.7243 H       
  29 H29            2.3016    -1.8322    -0.7623 H       
  30 H30            1.6850    -1.4616     0.8610 H       
  31 H31            0.4390    -3.0150    -1.3556 H       
  32 H32            0.3808    -3.2823     0.3948 H       
  33 H33           -1.3864    -1.6388    -1.3508 H       
  34 H34           -1.7800    -2.6149     0.0789 H       
  35 H35           -2.6904    -1.3964     1.6178 H       
  36 H36           -1.4170    -0.5726     2.5495 H       
  37 H37           -3.4028     0.7279     0.6330 H       
  38 H38           -3.3733     0.8904     2.4057 H       
  39 H39            2.2439     1.3269    -2.5847 H       
  40 H40            4.1016     2.9176    -2.3068 H       
  41 H41            4.1114     2.1592     1.8995 H       
  42 H42            2.2503     0.5740     1.6136 H       
  43 H43            7.1279     2.7747    -1.6948 H       
  44 H44            7.8723     4.0421    -3.6656 H       
  45 H45            6.8329     6.2022    -4.2114 H       
  46 H46            4.2760     5.8242    -0.7887 H       
@<TRIPOS>BOND
   1    1    2 1
   2    1   11 1
   3    1    6 1
   4    1   28 1
   5    2    3 1
   6    2   29 1
   7    2   30 1
   8    3    4 1
   9    3   31 1
  10    3   32 1
  11    4    5 1
  12    4   33 1
  13    4   34 1
  14    5    6 1
  15    5    7 1
  16    6   10 2
  17    7    8 1
  18    7   35 1
  19    7   36 1
  20    8    9 1
  21    8   37 1
  22    8   38 1
  23    9   10 am
  24    9   12 2
  25    9   13 2
  26   11   14 ar
  27   11   18 ar
  28   14   15 ar
  29   14   39 1
  30   15   16 ar
  31   15   40 1
  32   16   17 ar
  33   16   19 1
  34   17   18 ar
  35   17   41 1
  36   18   42 1
  37   19   20 1
  38   20   21 ar
  39   20   25 ar
  40   21   22 ar
  41   21   43 1
  42   22   23 ar
  43   22   44 1
  44   23   24 ar
  45   23   45 1
  46   24   25 ar
  47   24   26 1
  48   25   46 1
  49   26   27 3

#	End of record

