#	Name: ASD01148367
#	Creating user name:	WinNT
#	Creation time:	15. 06. 2019 19:02

#	Modifying user name:	WinNT
#	Modification time:	15. 06. 2019 19:02

#	Program:	/corina/corina34_cracker 3.40 0067  02.08.2006

@<TRIPOS>MOLECULE
ASD01148367
  52   55    0    0    0
SMALL
NO_CHARGES


@<TRIPOS>ATOM
   1 C1            -0.4097     1.8305    -0.0445 C.ar    
   2 C2            -0.4707     0.4510     0.0154 C.ar    
   3 C3             0.6941    -0.2897     0.0945 C.ar    
   4 C4             1.9195     0.3494     0.1132 C.ar    
   5 C5             1.9805     1.7292     0.0524 C.ar    
   6 C6             0.8161     2.4697    -0.0253 C.ar    
   7 C7             3.3166     2.4260     0.0737 C.3     
   8 O8             4.3316     1.6154    -0.5525 O.3     
   9 C9             3.3041     3.6757    -0.8387 C.3     
  10 C10            3.8466     3.1337    -2.1474 C.2     
  11 N11            4.3977     1.9899    -1.9143 N.2     
  12 C12            3.7590     3.7996    -3.4619 C.ar    
  13 C13            4.3035     3.1866    -4.5935 C.ar    
  14 C14            3.1267     5.0401    -3.5758 C.ar    
  15 C15            3.0451     5.6611    -4.8019 C.ar    
  16 C16            3.5940     5.0507    -5.9318 C.ar    
  17 C17            4.2218     3.8077    -5.8190 C.ar    
  18 C18            3.5055     5.7170    -7.2481 C.2     
  19 O19            4.0780     5.2420    -8.2095 O.2     
  20 N20            2.7901     6.8513    -7.3825 N.am    
  21 C21            4.8144     3.1495    -7.0383 C.3     
  22 C22            3.7157     2.7951     1.5039 C.3     
  23 F23            3.7858     1.6350     2.2826 F       
  24 F24            4.9650     3.4248     1.4917 F       
  25 F25            2.7613     3.6631     2.0451 F       
  26 C26            2.7023     7.5117    -8.6872 C.3     
  27 C27            1.8505     8.7491    -8.5676 C.2     
  28 C28            2.3661     9.9646    -8.3612 C.2     
  29 S29            1.0326    11.1138    -8.2858 S.3     
  30 C30           -0.0858     9.8455    -8.5391 C.2     
  31 N31            0.5364     8.7220    -8.6634 N.2     
  32 C32            0.6276    -1.7938     0.1608 C.3     
  33 F33           -0.7097    -2.2033     0.1277 F       
  34 F34            1.3095    -2.3393    -0.9321 F       
  35 F35            1.2211    -2.2349     1.3484 F       
  36 H36           -1.3194     2.4088    -0.1108 H       
  37 H37           -1.4282    -0.0484     0.0008 H       
  38 H38            2.8293    -0.2292     0.1757 H       
  39 H39            0.8638     3.5476    -0.0724 H       
  40 H40            2.2889     4.0513    -0.9666 H       
  41 H41            3.9578     4.4519    -0.4407 H       
  42 H42            4.7888     2.2257    -4.5063 H       
  43 H43            2.7016     5.5118    -2.7022 H       
  44 H44            2.5563     6.6201    -4.8900 H       
  45 H45            2.3333     7.2303    -6.6153 H       
  46 H46            5.8113     3.5512    -7.2197 H       
  47 H47            4.8805     2.0738    -6.8746 H       
  48 H48            4.1802     3.3472    -7.9024 H       
  49 H49            3.7018     7.7896    -9.0217 H       
  50 H50            2.2537     6.8303    -9.4100 H       
  51 H51            3.4150    10.2009    -8.2589 H       
  52 H52           -1.1575     9.9678    -8.5922 H       
@<TRIPOS>BOND
   1    1    2 ar
   2    1    6 ar
   3    1   36 1
   4    2    3 ar
   5    2   37 1
   6    3    4 ar
   7    3   32 1
   8    4    5 ar
   9    4   38 1
  10    5    6 ar
  11    5    7 1
  12    6   39 1
  13    7    8 1
  14    7    9 1
  15    7   22 1
  16    8   11 1
  17    9   10 1
  18    9   40 1
  19    9   41 1
  20   10   11 2
  21   10   12 1
  22   12   13 ar
  23   12   14 ar
  24   13   17 ar
  25   13   42 1
  26   14   15 ar
  27   14   43 1
  28   15   16 ar
  29   15   44 1
  30   16   17 ar
  31   16   18 1
  32   17   21 1
  33   18   19 2
  34   18   20 am
  35   20   26 1
  36   20   45 1
  37   21   46 1
  38   21   47 1
  39   21   48 1
  40   22   23 1
  41   22   24 1
  42   22   25 1
  43   26   27 1
  44   26   49 1
  45   26   50 1
  46   27   28 2
  47   27   31 1
  48   28   29 1
  49   28   51 1
  50   29   30 1
  51   30   31 2
  52   30   52 1
  53   32   33 1
  54   32   34 1
  55   32   35 1

#	End of record

