#	Name: ASD01150974
#	Creating user name:	WinNT
#	Creation time:	15. 06. 2019 19:05

#	Modifying user name:	WinNT
#	Modification time:	15. 06. 2019 19:05

#	Program:	/corina/corina34_cracker 3.40 0067  02.08.2006

@<TRIPOS>MOLECULE
ASD01150974
  32   33    0    0    0
SMALL
NO_CHARGES


@<TRIPOS>ATOM
   1 C1            -0.0153     1.2797     0.0091 C.2     
   2 N2             0.0021    -0.0041     0.0020 N.2     
   3 C3            -1.1770    -0.6344     0.0099 C.2     
   4 C4            -2.2682     0.2049     0.0248 C.2     
   5 S5            -1.6751     1.8641     0.0357 S.3     
   6 C6             1.2086     2.1590     0.0021 C.3     
   7 N7            -3.5928    -0.1847     0.0349 N.pl3   
   8 C8            -1.2973    -2.0920     0.0032 C.2     
   9 O9            -2.3974    -2.6116     0.0104 O.2     
  10 O10           -0.1883    -2.8603    -0.0110 O.3     
  11 C11           -0.3803    -4.2764    -0.0168 C.3     
  12 C12            0.9806    -4.9754    -0.0329 C.3     
  13 C13            1.2030     3.0603    -1.2450 C.3     
  14 C14            1.1822     4.5165    -0.7363 C.3     
  15 C15            1.7781     4.4288     0.6907 C.3     
  16 C16            1.1909     3.0989     1.2252 C.3     
  17 H17            2.1091     1.5450     0.0151 H       
  18 H18           -3.8212    -1.1274     0.0317 H       
  19 H19           -4.2951     0.4844     0.0452 H       
  20 H20           -0.9301    -4.5722     0.8767 H       
  21 H21           -0.9463    -4.5627    -0.9032 H       
  22 H22            1.5467    -4.6891     0.8535 H       
  23 H23            0.8342    -6.0555    -0.0374 H       
  24 H24            1.5304    -4.6796    -0.9264 H       
  25 H25            2.1013     2.8843    -1.8369 H       
  26 H26            0.3151     2.8617    -1.8453 H       
  27 H27            1.8018     5.1509    -1.3701 H       
  28 H28            0.1601     4.8935    -0.7004 H       
  29 H29            2.8665     4.3830     0.6527 H       
  30 H30            1.4469     5.2698     1.2999 H       
  31 H31            0.1703     3.2470     1.5779 H       
  32 H32            1.8169     2.6989     2.0228 H       
@<TRIPOS>BOND
   1    1    2 2
   2    1    6 1
   3    1    5 1
   4    2    3 1
   5    3    4 2
   6    3    8 1
   7    4    5 1
   8    4    7 1
   9    6   13 1
  10    6   16 1
  11    6   17 1
  12    7   18 1
  13    7   19 1
  14    8    9 2
  15    8   10 1
  16   10   11 1
  17   11   12 1
  18   11   20 1
  19   11   21 1
  20   12   22 1
  21   12   23 1
  22   12   24 1
  23   13   14 1
  24   13   25 1
  25   13   26 1
  26   14   15 1
  27   14   27 1
  28   14   28 1
  29   15   16 1
  30   15   29 1
  31   15   30 1
  32   16   31 1
  33   16   32 1

#	End of record

