#	Name: ASD01410007
#	Creating user name:	WinNT
#	Creation time:	15. 06. 2019 19:16

#	Modifying user name:	WinNT
#	Modification time:	15. 06. 2019 19:16

#	Program:	/corina/corina34_cracker 3.40 0067  02.08.2006

@<TRIPOS>MOLECULE
ASD01410007
  70   74    0    0    0
SMALL
NO_CHARGES


@<TRIPOS>ATOM
   1 C1             0.1496     1.5677     0.0255 C.3     
   2 C2             0.0081     0.0415     0.0330 C.3     
   3 O3             0.7999    -0.4964    -1.0326 O.3     
   4 C4             2.1071    -0.1560    -1.0364 C.2     
   5 C5             2.5200     1.0747    -0.4734 C.2     
   6 C6             1.6154     1.9237     0.0461 C.2     
   7 C7             0.5020    -0.5135     1.3705 C.3     
   8 C8            -0.3440     0.0440     2.5421 C.3     
   9 C9            -0.1739    -1.0023     3.6629 C.3     
  10 C10            0.2017    -2.3264     2.9748 C.3     
  11 C11            0.2467    -2.0385     1.4599 C.3     
  12 C12           -1.4592    -0.3392    -0.1747 C.3     
  13 C13           -1.9449     0.2147    -1.5156 C.3     
  14 C14           -3.3901    -0.1603    -1.7202 C.ar    
  15 C15           -4.3913     0.6811    -1.2724 C.ar    
  16 C16           -5.7171     0.3396    -1.4587 C.ar    
  17 C17           -6.0430    -0.8488    -2.0957 C.ar    
  18 C18           -5.0362    -1.6916    -2.5442 C.ar    
  19 C19           -3.7124    -1.3429    -2.3605 C.ar    
  20 C20           -5.3867    -2.9834    -3.2366 C.3     
  21 O21           -7.3463    -1.1871    -2.2798 O.3     
  22 C22           -8.3293    -0.2719    -1.7919 C.3     
  23 O23            2.0184     3.0914     0.5856 O.3     
  24 C24            3.9828     1.4365    -0.4558 C.3     
  25 O25            2.9298    -0.9082    -1.5238 O.2     
  26 C26            4.6376     0.8227     0.7548 C.2     
  27 N27            5.1972    -0.3789     0.7942 N.2     
  28 C28            5.6793    -0.6101     2.0101 C.2     
  29 N29            5.4109     0.4947     2.7683 N.pl3   
  30 N30            4.7458     1.3979     1.9288 N.2     
  31 N31            6.3208    -1.6559     2.5446 N.2     
  32 C32            6.7031    -1.6414     3.8011 C.2     
  33 C33            6.4436    -0.5252     4.6061 C.2     
  34 C34            5.7939     0.5409     4.0722 C.2     
  35 C35            5.5008     1.7570     4.9126 C.3     
  36 C36            7.4241    -2.8317     4.3794 C.3     
  37 H37           -0.3115     1.9725    -0.8754 H       
  38 H38           -0.3394     1.9839     0.9062 H       
  39 H39            1.5584    -0.2867     1.5147 H       
  40 H40            0.0399     1.0124     2.8629 H       
  41 H41           -1.3914     0.1250     2.2516 H       
  42 H42            0.6215    -0.6959     4.3423 H       
  43 H43           -1.1092    -1.1183     4.2105 H       
  44 H44            1.1793    -2.6625     3.3202 H       
  45 H45           -0.5514    -3.0850     3.1885 H       
  46 H46           -0.7054    -2.2939     0.9946 H       
  47 H47            1.0616    -2.5899     0.9909 H       
  48 H48           -1.5565    -1.4248    -0.1732 H       
  49 H49           -2.0611     0.0806     0.6313 H       
  50 H50           -1.8475     1.3003    -1.5171 H       
  51 H51           -1.3430    -0.2052    -2.3216 H       
  52 H52           -4.1371     1.6061    -0.7762 H       
  53 H53           -6.4990     0.9971    -1.1084 H       
  54 H54           -2.9283    -1.9986    -2.7095 H       
  55 H55           -5.4689    -2.8099    -4.3096 H       
  56 H56           -4.6069    -3.7208    -3.0464 H       
  57 H57           -6.3380    -3.3539    -2.8546 H       
  58 H58           -8.2081    -0.1480    -0.7158 H       
  59 H59           -8.2046     0.6922    -2.2850 H       
  60 H60           -9.3251    -0.6617    -2.0029 H       
  61 H61            1.6159     3.8984     0.2364 H       
  62 H62            4.4616     1.0580    -1.3589 H       
  63 H63            4.0885     2.5206    -0.4156 H       
  64 H64            6.7566    -0.5125     5.6397 H       
  65 H65            5.8830     1.6021     5.9216 H       
  66 H66            5.9835     2.6288     4.4710 H       
  67 H67            4.4237     1.9196     4.9531 H       
  68 H68            7.5351    -3.5974     3.6117 H       
  69 H69            8.4089    -2.5243     4.7311 H       
  70 H70            6.8496    -3.2343     5.2137 H       
@<TRIPOS>BOND
   1    1    2 1
   2    1    6 1
   3    1   37 1
   4    1   38 1
   5    2    3 1
   6    2    7 1
   7    2   12 1
   8    3    4 1
   9    4    5 1
  10    4   25 2
  11    5    6 2
  12    5   24 1
  13    6   23 1
  14    7    8 1
  15    7   11 1
  16    7   39 1
  17    8    9 1
  18    8   40 1
  19    8   41 1
  20    9   10 1
  21    9   42 1
  22    9   43 1
  23   10   11 1
  24   10   44 1
  25   10   45 1
  26   11   46 1
  27   11   47 1
  28   12   13 1
  29   12   48 1
  30   12   49 1
  31   13   14 1
  32   13   50 1
  33   13   51 1
  34   14   15 ar
  35   14   19 ar
  36   15   16 ar
  37   15   52 1
  38   16   17 ar
  39   16   53 1
  40   17   18 ar
  41   17   21 1
  42   18   19 ar
  43   18   20 1
  44   19   54 1
  45   20   55 1
  46   20   56 1
  47   20   57 1
  48   21   22 1
  49   22   58 1
  50   22   59 1
  51   22   60 1
  52   23   61 1
  53   24   26 1
  54   24   62 1
  55   24   63 1
  56   26   27 1
  57   26   30 2
  58   27   28 2
  59   28   29 1
  60   28   31 1
  61   29   30 1
  62   29   34 1
  63   31   32 2
  64   32   33 1
  65   32   36 1
  66   33   34 2
  67   33   64 1
  68   34   35 1
  69   35   65 1
  70   35   66 1
  71   35   67 1
  72   36   68 1
  73   36   69 1
  74   36   70 1

#	End of record

