#	Name: ASD01810373
#	Creating user name:	WinNT
#	Creation time:	15. 06. 2019 19:24

#	Modifying user name:	WinNT
#	Modification time:	15. 06. 2019 19:24

#	Program:	/corina/corina34_cracker 3.40 0067  02.08.2006

@<TRIPOS>MOLECULE
ASD01810373
  48   51    0    0    0
SMALL
NO_CHARGES


@<TRIPOS>ATOM
   1 C1            -0.0167     1.3836     0.0096 C.ar    
   2 C2             0.0021    -0.0041     0.0020 C.ar    
   3 C3             1.1955    -0.6917    -0.0130 C.ar    
   4 C4             2.4007     0.0063    -0.0207 C.ar    
   5 C5             2.3789     1.4112    -0.0130 C.ar    
   6 C6             1.1628     2.0943     0.0022 C.ar    
   7 N7             3.6012    -0.6701    -0.0353 N.pl3   
   8 C8             4.7860    -0.0459    -0.0424 C.2     
   9 C9             4.8923     1.3302    -0.0360 C.2     
  10 C10            3.6621     2.1382    -0.0214 C.2     
  11 O11            3.7021     3.3560    -0.0156 O.2     
  12 C12            6.2117     1.9779    -0.0431 C.2     
  13 C13            3.5805    -2.1349    -0.0429 C.3     
  14 C14            3.5604    -2.6296    -1.4663 C.ar    
  15 N15            2.4140    -2.7358    -2.1110 N.ar    
  16 N16            2.3448    -3.1517    -3.3233 N.ar    
  17 C17            3.4250    -3.5033    -4.0098 C.ar    
  18 C18            4.6829    -3.4234    -3.4071 C.ar    
  19 C19            4.7477    -2.9675    -2.0993 C.ar    
  20 C20            3.2973    -3.9790    -5.4091 C.ar    
  21 O21            7.2212     1.3007    -0.0548 O.2     
  22 O22            6.3024     3.3229    -0.0368 O.3     
  23 C23            2.0421    -4.0587    -6.0088 C.ar    
  24 C24            1.9293    -4.5016    -7.3113 C.ar    
  25 C25            3.0591    -4.8663    -8.0208 C.ar    
  26 C26            4.3078    -4.7891    -7.4303 C.ar    
  27 C27            4.4330    -4.3424    -6.1307 C.ar    
  28 S28            0.3429    -4.6030    -8.0713 S.o2    
  29 O29            0.4934    -5.6089    -9.0637 O.2     
  30 O30           -0.5561    -4.7749    -6.9843 O.2     
  31 C31            0.1057    -2.9783    -8.8426 C.3     
  32 H32           -0.9606     1.9085     0.0170 H       
  33 H33           -0.9293    -0.5508     0.0083 H       
  34 H34            1.1967    -1.7717    -0.0185 H       
  35 H35            1.1465     3.1742     0.0078 H       
  36 H36            5.6884    -0.6392    -0.0530 H       
  37 H37            4.4699    -2.5135     0.4608 H       
  38 H38            2.6902    -2.4884     0.4772 H       
  39 H39            5.5769    -3.7035    -3.9444 H       
  40 H40            5.6942    -2.8857    -1.5855 H       
  41 H41            7.1916     3.7029    -0.0419 H       
  42 H42            1.1592    -3.7748    -5.4555 H       
  43 H43            2.9661    -5.2129    -9.0394 H       
  44 H44            5.1867    -5.0755    -7.9888 H       
  45 H45            5.4084    -4.2823    -5.6709 H       
  46 H46            0.8962    -2.8038    -9.5725 H       
  47 H47           -0.8626    -2.9512    -9.3422 H       
  48 H48            0.1412    -2.2038    -8.0765 H       
@<TRIPOS>BOND
   1    1    2 ar
   2    1    6 ar
   3    1   32 1
   4    2    3 ar
   5    2   33 1
   6    3    4 ar
   7    3   34 1
   8    4    5 ar
   9    4    7 1
  10    5    6 ar
  11    5   10 1
  12    6   35 1
  13    7    8 1
  14    7   13 1
  15    8    9 2
  16    8   36 1
  17    9   10 1
  18    9   12 1
  19   10   11 2
  20   12   21 2
  21   12   22 1
  22   13   14 1
  23   13   37 1
  24   13   38 1
  25   14   15 ar
  26   14   19 ar
  27   15   16 ar
  28   16   17 ar
  29   17   18 ar
  30   17   20 1
  31   18   19 ar
  32   18   39 1
  33   19   40 1
  34   20   23 ar
  35   20   27 ar
  36   22   41 1
  37   23   24 ar
  38   23   42 1
  39   24   28 1
  40   24   25 ar
  41   25   26 ar
  42   25   43 1
  43   26   27 ar
  44   26   44 1
  45   27   45 1
  46   28   29 2
  47   28   30 2
  48   28   31 1
  49   31   46 1
  50   31   47 1
  51   31   48 1

#	End of record

