#	Name: ASD03091563
#	Creating user name:	WinNT
#	Creation time:	15. 06. 2019 20:30

#	Modifying user name:	WinNT
#	Modification time:	15. 06. 2019 20:30

#	Program:	/corina/corina34_cracker 3.40 0067  02.08.2006

@<TRIPOS>MOLECULE
ASD03091563
  43   45    0    0    0
SMALL
NO_CHARGES


@<TRIPOS>ATOM
   1 C1            -0.0166     1.3711     0.0096 C.2     
   2 C2             0.0018    -0.0033     0.0566 C.2     
   3 N3            -1.1957    -0.5726     0.0529 N.2     
   4 C4            -2.2260     0.2123     0.0065 C.2     
   5 S5            -1.6995     1.8914    -0.0337 S.3     
   6 N6            -3.5434    -0.2070    -0.0046 N.3     
   7 C7            -3.6299    -1.6738     0.0440 C.3     
   8 C8            -4.2977     0.3963     1.1037 C.3     
   9 C9            -5.7608    -0.0464     1.0187 C.3     
  10 O10           -5.8231    -1.4751     1.0359 O.3     
  11 C11           -5.0997    -2.0958    -0.0303 C.3     
  12 C12           -5.2018    -3.6167     0.1005 C.3     
  13 C13           -6.5341     0.5131     2.2145 C.3     
  14 C14            1.1646     2.2544     0.0030 C.ar    
  15 C15            1.2702     3.3097    -0.9132 C.ar    
  16 C16            2.2105     2.0657     0.9167 C.ar    
  17 C17            3.2955     2.9152     0.8745 C.ar    
  18 N18            3.3566     3.8939    -0.0088 N.ar    
  19 C19            2.3921     4.1102    -0.8835 C.ar    
  20 C20            4.4273     2.7240     1.8510 C.3     
  21 C21            2.5217     5.2448    -1.8668 C.3     
  22 C22            1.2171    -0.7591     0.1051 C.1     
  23 N23            2.1812    -1.3587     0.1436 N.1     
  24 H24           -3.0861    -2.0987    -0.7997 H       
  25 H25           -3.1947    -2.0334     0.9765 H       
  26 H26           -3.8732     0.0699     2.0531 H       
  27 H27           -4.2414     1.4826     1.0334 H       
  28 H28           -6.2006     0.3260     0.0935 H       
  29 H29           -5.5203    -1.7830    -0.9860 H       
  30 H30           -6.2487    -3.9161     0.0514 H       
  31 H31           -4.6503    -4.0892    -0.7123 H       
  32 H32           -4.7792    -3.9285     1.0557 H       
  33 H33           -6.4830     1.6018     2.2030 H       
  34 H34           -7.5757     0.1976     2.1534 H       
  35 H35           -6.0946     0.1385     3.1389 H       
  36 H36            0.4849     3.4927    -1.6318 H       
  37 H37            2.1671     1.2674     1.6429 H       
  38 H38            5.1672     2.0484     1.4218 H       
  39 H39            4.8930     3.6870     2.0606 H       
  40 H40            4.0404     2.2983     2.7768 H       
  41 H41            3.0159     4.8879    -2.7704 H       
  42 H42            1.5306     5.6216    -2.1194 H       
  43 H43            3.1123     6.0456    -1.4219 H       
@<TRIPOS>BOND
   1    1    2 2
   2    1   14 1
   3    1    5 1
   4    2    3 1
   5    2   22 1
   6    3    4 2
   7    4    5 1
   8    4    6 1
   9    6    7 1
  10    6    8 1
  11    7   11 1
  12    7   24 1
  13    7   25 1
  14    8    9 1
  15    8   26 1
  16    8   27 1
  17    9   10 1
  18    9   13 1
  19    9   28 1
  20   10   11 1
  21   11   12 1
  22   11   29 1
  23   12   30 1
  24   12   31 1
  25   12   32 1
  26   13   33 1
  27   13   34 1
  28   13   35 1
  29   14   15 ar
  30   14   16 ar
  31   15   19 ar
  32   15   36 1
  33   16   17 ar
  34   16   37 1
  35   17   18 ar
  36   17   20 1
  37   18   19 ar
  38   19   21 1
  39   20   38 1
  40   20   39 1
  41   20   40 1
  42   21   41 1
  43   21   42 1
  44   21   43 1
  45   22   23 3

#	End of record

