#	Name: ASD01940270
#	Creating user name:	WinNT
#	Creation time:	15. 06. 2019 20:12

#	Modifying user name:	WinNT
#	Modification time:	15. 06. 2019 20:12

#	Program:	/corina/corina34_cracker 3.40 0067  02.08.2006

@<TRIPOS>MOLECULE
ASD01940270
  39   40    0    0    0
SMALL
NO_CHARGES


@<TRIPOS>ATOM
   1 C1            -0.6515     1.3366    -0.8199 C.ar    
   2 C2            -0.3269     0.8530     0.4379 C.ar    
   3 C3            -1.3049     0.7368     1.4117 C.ar    
   4 C4            -2.6112     1.1032     1.1330 C.ar    
   5 C5            -2.9437     1.5888    -0.1259 C.ar    
   6 C6            -1.9604     1.7114    -1.1038 C.ar    
   7 N7            -2.2917     2.2017    -2.3775 N.am    
   8 S8            -2.1122     1.2343    -3.7095 S.o2    
   9 O9            -2.6039     2.0231    -4.7843 O.2     
  10 O10           -0.7524     0.8241    -3.6641 O.2     
  11 F11           -0.9841     0.2646     2.6361 F       
  12 F12           -3.5626     0.9880     2.0852 F       
  13 N13           -4.2658     1.9590    -0.4090 N.pl3   
  14 C14           -5.2005     0.9866    -0.7771 C.ar    
  15 C15           -6.4743     1.3646    -1.1903 C.ar    
  16 C16           -4.8582    -0.3582    -0.7368 C.ar    
  17 C17           -5.7841    -1.3169    -1.1017 C.ar    
  18 C18           -7.0505    -0.9392    -1.5072 C.ar    
  19 C19           -7.3951     0.3997    -1.5538 C.ar    
  20 F20           -6.8107     2.6722    -1.2358 F       
  21 C21           -8.0564    -1.9885    -1.9051 C.3     
  22 C22           -3.2126    -0.1738    -3.3979 C.3     
  23 O23            0.3111     1.4498    -1.7748 O.3     
  24 C24            1.6348     1.0520    -1.4119 C.3     
  25 H25            0.6905     0.5660     0.6590 H       
  26 H26           -2.6256     3.1069    -2.4770 H       
  27 H27           -4.5321     2.8898    -0.3496 H       
  28 H28           -3.8690    -0.6549    -0.4208 H       
  29 H29           -5.5177    -2.3631    -1.0702 H       
  30 H30           -8.3855     0.6913    -1.8708 H       
  31 H31           -8.6266    -2.2960    -1.0286 H       
  32 H32           -8.7339    -1.5770    -2.6534 H       
  33 H33           -7.5362    -2.8512    -2.3213 H       
  34 H34           -4.2168     0.1908    -3.1819 H       
  35 H35           -3.2405    -0.8150    -4.2789 H       
  36 H36           -2.8416    -0.7432    -2.5457 H       
  37 H37            2.3023     1.1925    -2.2620 H       
  38 H38            1.9799     1.6587    -0.5748 H       
  39 H39            1.6318     0.0012    -1.1222 H       
@<TRIPOS>BOND
   1    1    2 ar
   2    1   23 1
   3    1    6 ar
   4    2    3 ar
   5    2   25 1
   6    3    4 ar
   7    3   11 1
   8    4    5 ar
   9    4   12 1
  10    5    6 ar
  11    5   13 1
  12    6    7 1
  13    7    8 am
  14    7   26 1
  15    8    9 2
  16    8   10 2
  17    8   22 1
  18   13   14 1
  19   13   27 1
  20   14   15 ar
  21   14   16 ar
  22   15   20 1
  23   15   19 ar
  24   16   17 ar
  25   16   28 1
  26   17   18 ar
  27   17   29 1
  28   18   19 ar
  29   18   21 1
  30   19   30 1
  31   21   31 1
  32   21   32 1
  33   21   33 1
  34   22   34 1
  35   22   35 1
  36   22   36 1
  37   23   24 1
  38   24   37 1
  39   24   38 1
  40   24   39 1

#	End of record

