#	Name: ASD01870418
#	Creating user name:	WinNT
#	Creation time:	15. 06. 2019 19:39

#	Modifying user name:	WinNT
#	Modification time:	15. 06. 2019 19:39

#	Program:	/corina/corina34_cracker 3.40 0067  02.08.2006

@<TRIPOS>MOLECULE
ASD01870418
  33   35    0    0    0
SMALL
NO_CHARGES


@<TRIPOS>ATOM
   1 C1            -0.0162     1.3436     0.0094 C.2     
   2 N2             0.1041     0.2645    -0.7891 N.am    
   3 O3             0.9197     1.6986     0.6941 O.2     
   4 C4             1.3278    -0.3763    -0.9089 C.2     
   5 O5             2.4618    -0.0217    -0.2850 O.3     
   6 C6             3.4261    -0.8893    -0.6598 C.2     
   7 C7             2.8663    -1.7639    -1.5095 C.2     
   8 N8             1.5687    -1.4320    -1.6453 N.2     
   9 C9            -1.3117     2.1126     0.0468 C.3     
  10 C10            3.5640    -2.9155    -2.1863 C.3     
  11 F11            3.4677    -4.0565    -1.3825 F       
  12 F12            2.9602    -3.1644    -3.4235 F       
  13 F13            4.9117    -2.5947    -2.3812 F       
  14 C14           -2.1368     1.6487     1.2203 C.ar    
  15 C15           -2.8187     2.5472     2.0225 C.ar    
  16 O16           -2.7741     3.8860     1.7964 O.3     
  17 C17           -2.3240     4.3320     0.5164 C.3     
  18 C18           -1.0128     3.6074     0.1856 C.3     
  19 C19           -2.2070     0.2927     1.4911 C.ar    
  20 C20           -2.9565    -0.1678     2.5563 C.ar    
  21 C21           -3.6411     0.7269     3.3575 C.ar    
  22 C22           -3.5730     2.0799     3.0938 C.ar    
  23 H23           -0.6654    -0.0639    -1.2799 H       
  24 H24            4.4564    -0.8808    -0.3359 H       
  25 H25           -1.8639     1.9379    -0.8766 H       
  26 H26           -3.0741     4.0973    -0.2388 H       
  27 H27           -2.1523     5.4081     0.5420 H       
  28 H28           -0.2932     3.7652     0.9889 H       
  29 H29           -0.6080     3.9897    -0.7515 H       
  30 H30           -1.6734    -0.4084     0.8665 H       
  31 H31           -3.0074    -1.2266     2.7632 H       
  32 H32           -4.2284     0.3675     4.1895 H       
  33 H33           -4.1076     2.7781     3.7209 H       
@<TRIPOS>BOND
   1    1    2 am
   2    1    3 2
   3    1    9 1
   4    2    4 1
   5    2   23 1
   6    4    5 1
   7    4    8 2
   8    5    6 1
   9    6    7 2
  10    6   24 1
  11    7    8 1
  12    7   10 1
  13    9   14 1
  14    9   18 1
  15    9   25 1
  16   10   11 1
  17   10   12 1
  18   10   13 1
  19   14   19 ar
  20   14   15 ar
  21   15   16 1
  22   15   22 ar
  23   16   17 1
  24   17   18 1
  25   17   26 1
  26   17   27 1
  27   18   28 1
  28   18   29 1
  29   19   20 ar
  30   19   30 1
  31   20   21 ar
  32   20   31 1
  33   21   22 ar
  34   21   32 1
  35   22   33 1

#	End of record

