#	Name: ASD01885155
#	Creating user name:	WinNT
#	Creation time:	15. 06. 2019 19:49

#	Modifying user name:	WinNT
#	Modification time:	15. 06. 2019 19:49

#	Program:	/corina/corina34_cracker 3.40 0067  02.08.2006

@<TRIPOS>MOLECULE
ASD01885155
  55   59    0    0    0
SMALL
NO_CHARGES


@<TRIPOS>ATOM
   1 C1            -0.9402     0.4184     0.7515 C.2     
   2 C2             0.7468    -1.2342     0.3857 C.2     
   3 C3             1.7068    -0.2079     0.3755 C.2     
   4 C4             1.3338     1.0773     0.5496 C.2     
   5 N5             0.0213     1.3987     0.7365 N.pl3   
   6 C6            -0.6398     2.5716     0.9319 C.2     
   7 N7            -1.9117     2.2910     1.0536 N.2     
   8 N8            -2.1011     1.0229     0.9442 N.2     
   9 C9            -0.0200     3.9437     0.9969 C.3     
  10 C10            1.1696    -2.6676     0.1914 C.3     
  11 C11            0.0223     4.5512    -0.4067 C.3     
  12 N12            1.2608    -2.9608    -1.2451 N.3     
  13 C13           -0.5665    -0.9284     0.5718 C.2     
  14 C14            0.5116     5.9950    -0.5372 C.3     
  15 C15            1.3982     4.8412    -1.0098 C.3     
  16 C16            1.8940    -4.2653    -1.4768 C.3     
  17 C17            2.1040    -4.4724    -2.9785 C.3     
  18 C18            0.7508    -4.4070    -3.6919 C.3     
  19 C19            0.0908    -3.0577    -3.3950 C.3     
  20 C20           -0.0609    -2.8916    -1.8813 C.3     
  21 O21            0.9467    -4.5431    -5.1009 O.3     
  22 C22           -0.0950    -5.0272    -5.8240 C.ar    
  23 C23            0.0451    -5.3021    -7.1823 C.ar    
  24 C24           -1.3292    -5.2672    -5.2256 C.ar    
  25 C25           -2.3634    -5.7597    -5.9950 C.ar    
  26 N26           -2.1933    -6.0025    -7.2808 N.ar    
  27 C27           -1.0374    -5.7932    -7.8823 C.ar    
  28 Cl28          -1.7667    -2.1826     0.5880 Cl      
  29 C29           -3.7037    -6.0240    -5.3588 C.3     
  30 H30            2.7491    -0.4491     0.2278 H       
  31 H31            2.0804     1.8577     0.5403 H       
  32 H32           -0.6155     4.5809     1.6507 H       
  33 H33            0.9937     3.8662     1.3899 H       
  34 H34            2.1424    -2.8257     0.6570 H       
  35 H35            0.4350    -3.3286     0.6513 H       
  36 H36           -0.7658     4.2237    -1.0847 H       
  37 H37            0.0455     6.6172    -1.3012 H       
  38 H38            0.8033     6.5121     0.3770 H       
  39 H39            2.2733     4.5992    -0.4066 H       
  40 H40            1.5155     4.7043    -2.0848 H       
  41 H41            2.8572    -4.2971    -0.9676 H       
  42 H42            1.2514    -5.0551    -1.0876 H       
  43 H43            2.7577    -3.6908    -3.3657 H       
  44 H44            2.5597    -5.4474    -3.1511 H       
  45 H45            0.1104    -5.2127    -3.3328 H       
  46 H46            0.7128    -2.2538    -3.7888 H       
  47 H47           -0.8919    -3.0219    -3.8653 H       
  48 H48           -0.6943    -3.6878    -1.4902 H       
  49 H49           -0.5176    -1.9256    -1.6658 H       
  50 H50            0.9881    -5.1327    -7.6807 H       
  51 H51           -1.4749    -5.0710    -4.1736 H       
  52 H52           -0.9379    -6.0087    -8.9359 H       
  53 H53           -4.3205    -5.1277    -5.4252 H       
  54 H54           -4.1977    -6.8443    -5.8795 H       
  55 H55           -3.5625    -6.2911    -4.3115 H       
@<TRIPOS>BOND
   1    1   13 1
   2    1    5 1
   3    1    8 2
   4    2    3 1
   5    2   10 1
   6    2   13 2
   7    3    4 2
   8    3   30 1
   9    4    5 1
  10    4   31 1
  11    5    6 1
  12    6    7 2
  13    6    9 1
  14    7    8 1
  15    9   11 1
  16    9   32 1
  17    9   33 1
  18   10   12 1
  19   10   34 1
  20   10   35 1
  21   11   14 1
  22   11   15 1
  23   11   36 1
  24   12   16 1
  25   12   20 1
  26   13   28 1
  27   14   15 1
  28   14   37 1
  29   14   38 1
  30   15   39 1
  31   15   40 1
  32   16   17 1
  33   16   41 1
  34   16   42 1
  35   17   18 1
  36   17   43 1
  37   17   44 1
  38   18   19 1
  39   18   21 1
  40   18   45 1
  41   19   20 1
  42   19   46 1
  43   19   47 1
  44   20   48 1
  45   20   49 1
  46   21   22 1
  47   22   24 ar
  48   22   23 ar
  49   23   27 ar
  50   23   50 1
  51   24   25 ar
  52   24   51 1
  53   25   26 ar
  54   25   29 1
  55   26   27 ar
  56   27   52 1
  57   29   53 1
  58   29   54 1
  59   29   55 1

#	End of record

