#	Name: ASD01913631
#	Creating user name:	WinNT
#	Creation time:	15. 06. 2019 20:01

#	Modifying user name:	WinNT
#	Modification time:	15. 06. 2019 20:01

#	Program:	/corina/corina34_cracker 3.40 0067  02.08.2006

@<TRIPOS>MOLECULE
ASD01913631
  38   40    0    0    0
SMALL
NO_CHARGES


@<TRIPOS>ATOM
   1 C1            -0.0052     1.3533     0.0124 C.ar    
   2 C2             0.0166    -0.0288    -0.0004 C.ar    
   3 C3             1.2244    -0.7008    -0.0206 C.ar    
   4 C4             2.4105     0.0093    -0.0283 C.ar    
   5 C5             2.3886     1.3914    -0.0164 C.ar    
   6 C6             1.1808     2.0634     0.0052 C.ar    
   7 C7             3.6816     2.1655    -0.0243 C.3     
   8 O8             4.0752     2.4216    -1.3740 O.3     
   9 C9             5.2257     3.1131    -1.5586 C.ar    
  10 N10            5.9221     3.5140    -0.5061 N.ar    
  11 C11            7.0456     4.1885    -0.6336 C.ar    
  12 C12            7.5445     4.5063    -1.8974 C.ar    
  13 C13            6.8305     4.0962    -3.0334 C.ar    
  14 C14            5.6614     3.3869    -2.8517 C.ar    
  15 C15            8.8039     5.2629    -2.0370 C.2     
  16 N16            9.4813     5.6523    -0.9389 N.am    
  17 O17            9.2303     5.5349    -3.1426 O.2     
  18 C18           10.7237     6.2716    -1.0693 C.ar    
  19 N19           11.2756     6.3869    -2.2665 N.ar    
  20 C20           12.4494     6.9656    -2.4350 C.ar    
  21 C21           13.1490     7.4759    -1.3569 C.ar    
  22 C22           12.6026     7.3742    -0.0827 C.ar    
  23 C23           11.3677     6.7668     0.0590 C.ar    
  24 F24           14.3503     8.0663    -1.5398 F       
  25 H25           -0.9489     1.8784     0.0236 H       
  26 H26           -0.9100    -0.5835     0.0056 H       
  27 H27            1.2415    -1.7806    -0.0299 H       
  28 H28            3.3541    -0.5158    -0.0433 H       
  29 H29            1.1638     3.1433     0.0142 H       
  30 H30            3.5420     3.1114     0.4991 H       
  31 H31            4.4562     1.5842     0.4760 H       
  32 H32            7.5860     4.4990     0.2484 H       
  33 H33            7.1895     4.3265    -4.0256 H       
  34 H34            5.0860     3.0552    -3.7033 H       
  35 H35            9.1046     5.5017    -0.0578 H       
  36 H36           12.8691     7.0414    -3.4273 H       
  37 H37           13.1281     7.7644     0.7764 H       
  38 H38           10.9138     6.6709     1.0343 H       
@<TRIPOS>BOND
   1    1    2 ar
   2    1    6 ar
   3    1   25 1
   4    2    3 ar
   5    2   26 1
   6    3    4 ar
   7    3   27 1
   8    4    5 ar
   9    4   28 1
  10    5    6 ar
  11    5    7 1
  12    6   29 1
  13    7    8 1
  14    7   30 1
  15    7   31 1
  16    8    9 1
  17    9   10 ar
  18    9   14 ar
  19   10   11 ar
  20   11   12 ar
  21   11   32 1
  22   12   13 ar
  23   12   15 1
  24   13   14 ar
  25   13   33 1
  26   14   34 1
  27   15   16 am
  28   15   17 2
  29   16   18 1
  30   16   35 1
  31   18   19 ar
  32   18   23 ar
  33   19   20 ar
  34   20   21 ar
  35   20   36 1
  36   21   22 ar
  37   21   24 1
  38   22   23 ar
  39   22   37 1
  40   23   38 1

#	End of record

