#	Name: ASD01230852
#	Creating user name:	WinNT
#	Creation time:	15. 06. 2019 19:15

#	Modifying user name:	WinNT
#	Modification time:	15. 06. 2019 19:15

#	Program:	/corina/corina34_cracker 3.40 0067  02.08.2006

@<TRIPOS>MOLECULE
ASD01230852
  54   57    0    0    0
SMALL
NO_CHARGES


@<TRIPOS>ATOM
   1 C1            -0.2123     2.2462     0.4918 C.3     
   2 C2            -0.3694     0.9092     1.2213 C.3     
   3 C3            -1.8373     0.5522     1.4078 C.3     
   4 C4            -2.7288     1.1477     0.3269 C.3     
   5 N5            -1.9920     1.3422    -0.9240 N.pl3   
   6 C6            -0.8390     2.0824    -0.8823 C.2     
   7 C7            -2.4599     0.7322    -2.1660 C.3     
   8 C8            -2.5497     1.8009    -3.2566 C.3     
   9 S9            -0.9483     2.6342    -3.4140 S.o2    
  10 N10           -0.3108     2.6483    -1.8955 N.am    
  11 C11            1.2491     2.5866     0.3524 C.ar    
  12 O12           -0.0440     1.8334    -4.1625 O.2     
  13 O13           -1.1329     4.0083    -3.7256 O.2     
  14 C14            1.7436     3.7492     0.9141 C.ar    
  15 C15            3.0828     4.0635     0.7878 C.ar    
  16 C16            3.9321     3.2111     0.0969 C.ar    
  17 C17            3.4334     2.0447    -0.4654 C.ar    
  18 C18            2.0943     1.7327    -0.3321 C.ar    
  19 O19            5.2498     3.5181    -0.0292 O.3     
  20 C20            6.0992     3.0955     0.9436 C.ar    
  21 C21            5.6342     2.2819     1.9672 C.ar    
  22 C22            6.4998     1.8533     2.9544 C.ar    
  23 C23            7.8287     2.2347     2.9238 C.ar    
  24 C24            8.2945     3.0451     1.9053 C.ar    
  25 C25            7.4342     3.4719     0.9121 C.ar    
  26 C26            8.7707     1.7663     4.0029 C.3     
  27 C27            5.9955     0.9697     4.0662 C.3     
  28 C28            7.9426     4.3555    -0.1978 C.3     
  29 H29           -0.7257     3.0333     1.0441 H       
  30 H30            0.1176     0.1260     0.6403 H       
  31 H31            0.1086     0.9772     2.1985 H       
  32 H32           -1.9405    -0.5327     1.3909 H       
  33 H33           -2.1683     0.9200     2.3790 H       
  34 H34           -3.5677     0.4756     0.1460 H       
  35 H35           -3.1108     2.1094     0.6692 H       
  36 H36           -1.7607    -0.0447    -2.4753 H       
  37 H37           -3.4444     0.2924    -2.0064 H       
  38 H38           -2.8102     1.3315    -4.2053 H       
  39 H39           -3.3144     2.5301    -2.9892 H       
  40 H40            1.0822     4.4124     1.4518 H       
  41 H41            3.4684     4.9722     1.2261 H       
  42 H42            4.0923     1.3795    -1.0037 H       
  43 H43            1.7057     0.8248    -0.7693 H       
  44 H44            4.5963     1.9843     1.9919 H       
  45 H45            9.3329     3.3415     1.8837 H       
  46 H46            9.2238     0.8209     3.7045 H       
  47 H47            9.5513     2.5122     4.1526 H       
  48 H48            8.2182     1.6271     4.9322 H       
  49 H49            6.0995    -0.0755     3.7752 H       
  50 H50            6.5767     1.1550     4.9695 H       
  51 H51            4.9455     1.1907     4.2581 H       
  52 H52            8.2954     3.7362    -1.0225 H       
  53 H53            7.1364     5.0006    -0.5469 H       
  54 H54            8.7638     4.9687     0.1732 H       
@<TRIPOS>BOND
   1    1    2 1
   2    1   11 1
   3    1    6 1
   4    1   29 1
   5    2    3 1
   6    2   30 1
   7    2   31 1
   8    3    4 1
   9    3   32 1
  10    3   33 1
  11    4    5 1
  12    4   34 1
  13    4   35 1
  14    5    6 1
  15    5    7 1
  16    6   10 2
  17    7    8 1
  18    7   36 1
  19    7   37 1
  20    8    9 1
  21    8   38 1
  22    8   39 1
  23    9   10 am
  24    9   12 2
  25    9   13 2
  26   11   14 ar
  27   11   18 ar
  28   14   15 ar
  29   14   40 1
  30   15   16 ar
  31   15   41 1
  32   16   17 ar
  33   16   19 1
  34   17   18 ar
  35   17   42 1
  36   18   43 1
  37   19   20 1
  38   20   21 ar
  39   20   25 ar
  40   21   22 ar
  41   21   44 1
  42   22   23 ar
  43   22   27 1
  44   23   24 ar
  45   23   26 1
  46   24   25 ar
  47   24   45 1
  48   25   28 1
  49   26   46 1
  50   26   47 1
  51   26   48 1
  52   27   49 1
  53   27   50 1
  54   27   51 1
  55   28   52 1
  56   28   53 1
  57   28   54 1

#	End of record

