#	Name: ASD01880510
#	Creating user name:	WinNT
#	Creation time:	15. 06. 2019 19:40

#	Modifying user name:	WinNT
#	Modification time:	15. 06. 2019 19:40

#	Program:	/corina/corina34_cracker 3.40 0067  02.08.2006

@<TRIPOS>MOLECULE
ASD01880510
  48   51    0    0    0
SMALL
NO_CHARGES


@<TRIPOS>ATOM
   1 N1             0.0047     1.3280    -0.1708 N.ar    
   2 C2             0.0077     0.0102    -0.1809 C.ar    
   3 N3             1.1178    -0.6849    -0.0192 N.ar    
   4 C4             2.2819    -0.0801     0.1606 C.ar    
   5 C5             2.3288     1.3026     0.1783 C.ar    
   6 C6             1.1358     2.0086     0.0046 C.ar    
   7 C7             3.6337     2.0288     0.3807 C.3     
   8 O8             4.6664     1.0826     0.6642 O.3     
   9 C9             5.9132     1.5757     0.8739 C.ar    
  10 C10            6.9652     0.7093     1.1548 C.ar    
  11 C11            8.2260     1.2094     1.3662 C.ar    
  12 C12            8.4613     2.5868     1.3011 C.ar    
  13 C13            7.4013     3.4525     1.0182 C.ar    
  14 C14            6.1393     2.9451     0.8021 C.ar    
  15 C15            9.5526     0.5655     1.6839 C.3     
  16 N16           10.5244     1.6598     1.7892 N.am    
  17 C17            9.8906     2.8241     1.5677 C.2     
  18 O18           10.4215     3.9178     1.5844 O.2     
  19 Cl19          -1.4907    -0.8351    -0.4128 Cl      
  20 C20            1.1293     3.4916     0.0145 C.ar    
  21 C21            2.0941     4.2001    -0.6994 C.ar    
  22 C22            2.0829     5.5801    -0.6870 C.ar    
  23 C23            1.1165     6.2601     0.0322 C.ar    
  24 C24            0.1567     5.5621     0.7430 C.ar    
  25 C25            0.1548     4.1820     0.7331 C.ar    
  26 C26           14.2193     1.1821     1.0924 C.3     
  27 C27           12.7297     1.3404     0.7811 C.3     
  28 C28           11.9508     1.5083     2.0872 C.3     
  29 H29            3.1839    -0.6592     0.2923 H       
  30 H30            3.8860     2.5817    -0.5242 H       
  31 H31            3.5376     2.7228     1.2156 H       
  32 H32            6.7899    -0.3551     1.2067 H       
  33 H33            7.5721     4.5177     0.9661 H       
  34 H34            5.3207     3.6146     0.5832 H       
  35 H35            9.4908     0.0270     2.6296 H       
  36 H36            9.8402    -0.1152     0.8827 H       
  37 H37            2.8493     3.6703    -1.2610 H       
  38 H38            2.8303     6.1302    -1.2395 H       
  39 H39            1.1115     7.3400     0.0391 H       
  40 H40           -0.5950     6.0981     1.3033 H       
  41 H41           -0.5953     3.6381     1.2880 H       
  42 H42           14.5769     2.0679     1.6174 H       
  43 H43           14.3680     0.3032     1.7196 H       
  44 H44           14.7742     1.0625     0.1618 H       
  45 H45           12.5809     2.2193     0.1538 H       
  46 H46           12.3721     0.4546     0.2561 H       
  47 H47           12.3084     2.3940     2.6122 H       
  48 H48           12.0995     0.6293     2.7145 H       
@<TRIPOS>BOND
   1    1    2 ar
   2    1    6 ar
   3    2    3 ar
   4    2   19 1
   5    3    4 ar
   6    4    5 ar
   7    4   29 1
   8    5    6 ar
   9    5    7 1
  10    6   20 1
  11    7    8 1
  12    7   30 1
  13    7   31 1
  14    8    9 1
  15    9   10 ar
  16    9   14 ar
  17   10   11 ar
  18   10   32 1
  19   11   12 ar
  20   11   15 1
  21   12   13 ar
  22   12   17 1
  23   13   14 ar
  24   13   33 1
  25   14   34 1
  26   15   16 1
  27   15   35 1
  28   15   36 1
  29   16   17 am
  30   16   28 1
  31   17   18 2
  32   20   21 ar
  33   20   25 ar
  34   21   22 ar
  35   21   37 1
  36   22   23 ar
  37   22   38 1
  38   23   24 ar
  39   23   39 1
  40   24   25 ar
  41   24   40 1
  42   25   41 1
  43   26   27 1
  44   26   42 1
  45   26   43 1
  46   26   44 1
  47   27   28 1
  48   27   45 1
  49   27   46 1
  50   28   47 1
  51   28   48 1

#	End of record

