#	Name: ASD01913994
#	Creating user name:	WinNT
#	Creation time:	15. 06. 2019 20:02

#	Modifying user name:	WinNT
#	Modification time:	15. 06. 2019 20:02

#	Program:	/corina/corina34_cracker 3.40 0067  02.08.2006

@<TRIPOS>MOLECULE
ASD01913994
  46   49    0    0    0
SMALL
NO_CHARGES


@<TRIPOS>ATOM
   1 C1            -0.0181     1.3836     0.1510 C.ar    
   2 C2            -0.0007     0.0058     0.2650 C.ar    
   3 C3             1.2033    -0.6672     0.3599 C.ar    
   4 C4             2.3923     0.0358     0.3406 C.ar    
   5 C5             2.3776     1.4183     0.2259 C.ar    
   6 C6             1.1681     2.0913     0.1314 C.ar    
   7 O7             3.5459     2.1122     0.2072 O.3     
   8 C8             3.4546     3.5332     0.0868 C.3     
   9 C9             4.8397     4.1271     0.0835 C.ar    
  10 N10            4.9849     5.4343    -0.0197 N.ar    
  11 C11            6.1724     6.0037    -0.0275 C.ar    
  12 C12            7.3301     5.2317     0.0741 C.ar    
  13 C13            7.2082     3.8412     0.1849 C.ar    
  14 C14            5.9379     3.2930     0.1944 C.ar    
  15 C15            8.6631     5.8710     0.0643 C.2     
  16 N16            8.7673     7.2104    -0.0433 N.am    
  17 C17           10.0882     7.8440    -0.0530 C.3     
  18 O18            9.6651     5.1887     0.1534 O.2     
  19 C19           10.0246     9.2118    -0.7704 C.3     
  20 C20           10.5396     8.1819     1.4007 C.3     
  21 C21            9.3102     8.9022     2.0338 C.3     
  22 C22            9.2465    10.2700     1.3164 C.3     
  23 C23           10.4436    10.2473     0.3175 C.3     
  24 C24           11.4865     9.4048     1.1336 C.3     
  25 H25           -0.9598     1.9067     0.0729 H       
  26 H26           -0.9292    -0.5456     0.2802 H       
  27 H27            1.2143    -1.7435     0.4495 H       
  28 H28            3.3326    -0.4903     0.4152 H       
  29 H29            1.1540     3.1675     0.0416 H       
  30 H30            2.9482     3.7872    -0.8444 H       
  31 H31            2.8896     3.9336     0.9286 H       
  32 H32            6.2507     7.0774    -0.1136 H       
  33 H33            8.0832     3.2132     0.2653 H       
  34 H34            5.8053     2.2245     0.2785 H       
  35 H35            7.9677     7.7550    -0.1144 H       
  36 H36           10.8169     7.1942    -0.5377 H       
  37 H37           10.7235     9.2352    -1.6065 H       
  38 H38            9.0105     9.4129    -1.1158 H       
  39 H39           10.9547     7.3538     1.9754 H       
  40 H40            8.3992     8.3331     1.8482 H       
  41 H41            9.4609     9.0412     3.1043 H       
  42 H42            8.3044    10.3733     0.7782 H       
  43 H43            9.3661    11.0815     2.0343 H       
  44 H44           10.7750    11.2180    -0.0512 H       
  45 H45           11.7813     9.9029     2.0572 H       
  46 H46           12.3508     9.1283     0.5298 H       
@<TRIPOS>BOND
   1    1    2 ar
   2    1    6 ar
   3    1   25 1
   4    2    3 ar
   5    2   26 1
   6    3    4 ar
   7    3   27 1
   8    4    5 ar
   9    4   28 1
  10    5    6 ar
  11    5    7 1
  12    6   29 1
  13    7    8 1
  14    8    9 1
  15    8   30 1
  16    8   31 1
  17    9   10 ar
  18    9   14 ar
  19   10   11 ar
  20   11   12 ar
  21   11   32 1
  22   12   13 ar
  23   12   15 1
  24   13   14 ar
  25   13   33 1
  26   14   34 1
  27   15   16 am
  28   15   18 2
  29   16   17 1
  30   16   35 1
  31   17   19 1
  32   17   20 1
  33   17   36 1
  34   19   23 1
  35   19   37 1
  36   19   38 1
  37   20   21 1
  38   20   24 1
  39   20   39 1
  40   21   22 1
  41   21   40 1
  42   21   41 1
  43   22   23 1
  44   22   42 1
  45   22   43 1
  46   23   24 1
  47   23   44 1
  48   24   45 1
  49   24   46 1

#	End of record

