#	Name: ASD01150338
#	Creating user name:	WinNT
#	Creation time:	15. 06. 2019 19:04

#	Modifying user name:	WinNT
#	Modification time:	15. 06. 2019 19:04

#	Program:	/corina/corina34_cracker 3.40 0067  02.08.2006

@<TRIPOS>MOLECULE
ASD01150338
  62   64    0    0    0
SMALL
NO_CHARGES


@<TRIPOS>ATOM
   1 N1            -0.0190     1.3948    -0.0333 N.pl3   
   2 C2             0.0010    -0.0019    -0.0418 C.2     
   3 C3            -1.3286    -0.4041    -0.0119 C.2     
   4 N4            -2.0869     0.6955     0.0128 N.2     
   5 C5            -1.3254     1.7694     0.0060 C.2     
   6 C6             1.1382    -0.8336    -0.0745 C.2     
   7 C7             1.0934     2.2460    -0.0549 C.ar    
   8 C8             1.3115     3.0784    -1.1448 C.ar    
   9 C9             2.4089     3.9168    -1.1629 C.ar    
  10 C10            3.2903     3.9276    -0.0974 C.ar    
  11 C11            3.0761     3.0995     0.9892 C.ar    
  12 C12            1.9772     2.2633     1.0160 C.ar    
  13 N13           -1.7805     3.0676     0.0268 N.3     
  14 C14           -3.2485     3.1103     0.0575 C.3     
  15 C15           -1.2084     3.8079     1.1593 C.3     
  16 O16            1.0072    -2.0444    -0.0782 O.2     
  17 O17            2.3733    -0.2881    -0.1017 O.3     
  18 C18            3.4807    -1.1907    -0.1341 C.3     
  19 C19            3.3897    -2.0648    -1.3865 C.3     
  20 C20            4.7869    -0.3945    -0.1617 C.3     
  21 C21            3.4511    -2.0791     1.1112 C.3     
  22 N22           -1.7875    -1.7155    -0.0087 N.am    
  23 C23           -3.1115    -1.9661     0.0220 C.2     
  24 O24           -3.9014    -1.0491     0.1439 O.2     
  25 C25           -3.6009    -3.3475    -0.0919 C.2     
  26 C26           -3.8488    -4.2306     0.9465 C.2     
  27 C27           -4.2950    -5.4051     0.3342 C.2     
  28 N28           -4.3012    -5.2065    -0.9591 N.2     
  29 N29           -3.9086    -4.0172    -1.2435 N.pl3   
  30 C30           -4.6976    -6.6751     1.0386 C.3     
  31 C31           -3.7969    -3.4658    -2.5962 C.3     
  32 C32           -5.1555    -2.9176    -3.0373 C.3     
  33 Br33          -3.6291    -3.9146     2.7979 Br      
  34 H34            0.6239     3.0699    -1.9775 H       
  35 H35            2.5790     4.5644    -2.0103 H       
  36 H36            4.1479     4.5838    -0.1141 H       
  37 H37            3.7664     3.1100     1.8197 H       
  38 H38            1.8104     1.6169     1.8649 H       
  39 H39           -3.6083     2.5995     0.9507 H       
  40 H40           -3.5815     4.1481     0.0735 H       
  41 H41           -3.6451     2.6151    -0.8288 H       
  42 H42           -0.1218     3.8198     1.0739 H       
  43 H43           -1.5847     4.8309     1.1519 H       
  44 H44           -1.4943     3.3224     2.0924 H       
  45 H45            3.4108    -1.4319    -2.2737 H       
  46 H46            4.2343    -2.7533    -1.4112 H       
  47 H47            2.4591    -2.6320    -1.3669 H       
  48 H48            4.8518     0.2282     0.7306 H       
  49 H49            5.6316    -1.0830    -0.1864 H       
  50 H50            4.8080     0.2384    -1.0488 H       
  51 H51            2.5205    -2.6463     1.1308 H       
  52 H52            4.2957    -2.7676     1.0864 H       
  53 H53            3.5159    -1.4564     2.0034 H       
  54 H54           -1.1551    -2.4507    -0.0285 H       
  55 H55           -5.7633    -6.6428     1.2651 H       
  56 H56           -4.4886    -7.5295     0.3949 H       
  57 H57           -4.1319    -6.7715     1.9654 H       
  58 H58           -3.0615    -2.6613    -2.6011 H       
  59 H59           -3.4813    -4.2507    -3.2836 H       
  60 H60           -5.8909    -3.7221    -3.0324 H       
  61 H61           -5.4711    -2.1327    -2.3499 H       
  62 H62           -5.0724    -2.5074    -4.0437 H       
@<TRIPOS>BOND
   1    1    2 1
   2    1    7 1
   3    1    5 1
   4    2    3 2
   5    2    6 1
   6    3    4 1
   7    3   22 1
   8    4    5 2
   9    5   13 1
  10    6   16 2
  11    6   17 1
  12    7    8 ar
  13    7   12 ar
  14    8    9 ar
  15    8   34 1
  16    9   10 ar
  17    9   35 1
  18   10   11 ar
  19   10   36 1
  20   11   12 ar
  21   11   37 1
  22   12   38 1
  23   13   14 1
  24   13   15 1
  25   14   39 1
  26   14   40 1
  27   14   41 1
  28   15   42 1
  29   15   43 1
  30   15   44 1
  31   17   18 1
  32   18   19 1
  33   18   20 1
  34   18   21 1
  35   19   45 1
  36   19   46 1
  37   19   47 1
  38   20   48 1
  39   20   49 1
  40   20   50 1
  41   21   51 1
  42   21   52 1
  43   21   53 1
  44   22   23 am
  45   22   54 1
  46   23   24 2
  47   23   25 1
  48   25   26 2
  49   25   29 1
  50   26   27 1
  51   26   33 1
  52   27   28 2
  53   27   30 1
  54   28   29 1
  55   29   31 1
  56   30   55 1
  57   30   56 1
  58   30   57 1
  59   31   32 1
  60   31   58 1
  61   31   59 1
  62   32   60 1
  63   32   61 1
  64   32   62 1

#	End of record

