#	Name: ASD09330003
#	Creating user name:	WinNT
#	Creation time:	15. 06. 2019 21:21

#	Modifying user name:	WinNT
#	Modification time:	15. 06. 2019 21:21

#	Program:	/corina/corina34_cracker 3.40 0067  02.08.2006

@<TRIPOS>MOLECULE
ASD09330003
  30   30    0    0    0
SMALL
NO_CHARGES


@<TRIPOS>ATOM
   1 C1            -0.0187     1.5275     0.0104 C.3     
   2 C2             0.6801    -0.5016     1.2823 C.3     
   3 C3            -0.0626     0.0627     2.4962 C.3     
   4 C4             0.6445    -0.3808     3.7785 C.3     
   5 O5            -0.7085     3.4416     1.3163 O.3     
   6 O6            -0.8096     0.2598     7.4385 O.3     
   7 P7             0.3377    -0.2483     6.4296 P.3     
   8 O8             1.7114     0.5306     6.7431 O.3     
   9 O9             0.5434    -1.7029     6.6088 O.2     
  10 O10           -0.1126     0.0472     4.9124 O.3     
  11 O11           -0.0716     1.4900     2.4262 O.3     
  12 C12           -0.7344     2.0135     1.2735 C.3     
  13 N13           -0.7316     2.0154    -1.1777 N.3     
  14 C14            0.0021    -0.0041     0.0020 C.3     
  15 O15            0.7323    -0.4660    -1.1362 O.3     
  16 O16            0.6406    -1.9295     1.3197 O.3     
  17 H17            1.0036     1.9057     0.0027 H       
  18 H18            1.7168    -0.1653     1.2997 H       
  19 H19           -1.0877    -0.3077     2.4996 H       
  20 H20            0.7310    -1.4673     3.7885 H       
  21 H21            1.6392     0.0633     3.8171 H       
  22 H22           -1.1444     3.8198     2.0923 H       
  23 H23           -0.6053     0.1134     8.3722 H       
  24 H24            1.6503     1.4907     6.6455 H       
  25 H25           -1.7684     1.6689     1.2607 H       
  26 H26           -0.7585     3.0239    -1.1946 H       
  27 H27           -0.3180     1.6505    -2.0227 H       
  28 H28           -1.0192    -0.3823    -0.0419 H       
  29 H29            0.3619    -0.1816    -1.9830 H       
  30 H30            1.0906    -2.3550     0.5770 H       
@<TRIPOS>BOND
   1    1   14 1
   2    1   17 1
   3    1   12 1
   4    1   13 1
   5    2   16 1
   6    2   18 1
   7    2    3 1
   8    2   14 1
   9    3    4 1
  10    3   19 1
  11    3   11 1
  12    4   20 1
  13    4   21 1
  14    4   10 1
  15    5   12 1
  16    5   22 1
  17    6   23 1
  18    6    7 1
  19    7    8 1
  20    7    9 2
  21    7   10 1
  22    8   24 1
  23   11   12 1
  24   12   25 1
  25   13   26 1
  26   13   27 1
  27   14   15 1
  28   14   28 1
  29   15   29 1
  30   16   30 1

#	End of record

