#	Name: ASD01881603
#	Creating user name:	WinNT
#	Creation time:	15. 06. 2019 19:43

#	Modifying user name:	WinNT
#	Modification time:	15. 06. 2019 19:43

#	Program:	/corina/corina34_cracker 3.40 0067  02.08.2006

@<TRIPOS>MOLECULE
ASD01881603
  60   63    0    0    0
SMALL
NO_CHARGES


@<TRIPOS>ATOM
   1 N1            -0.0554     2.0536     0.6393 N.pl3   
   2 N2            -0.2993     1.9482    -0.7380 N.2     
   3 N3             0.8202     1.9375    -1.3714 N.2     
   4 C4             1.8493     2.0306    -0.5057 C.ar    
   5 C5             1.3114     2.1064     0.7908 C.ar    
   6 C6             3.2406     2.0611    -0.6724 C.ar    
   7 C7             4.0580     2.1645     0.4344 C.ar    
   8 C8             3.5101     2.2382     1.7130 C.ar    
   9 C9             2.1556     2.2109     1.8906 C.ar    
  10 O10            5.4082     2.1943     0.2760 O.3     
  11 C11            5.9854     3.3783    -0.0490 C.ar    
  12 C12            7.3697     3.4720    -0.1213 C.ar    
  13 C13            7.9458     4.6854    -0.4538 C.ar    
  14 C14            7.1128     5.7676    -0.7036 C.ar    
  15 C15            5.7451     5.6022    -0.6135 C.ar    
  16 N16            5.2247     4.4310    -0.2993 N.ar    
  17 C17            8.2323     2.2685     0.1592 C.3     
  18 C18            8.4479     1.4827    -1.1357 C.3     
  19 N19            9.5307     2.7089     0.6867 N.3     
  20 C20           10.4233     1.5681     0.9038 C.3     
  21 C21           11.8690     2.0557     1.0396 C.3     
  22 S22           11.9869     3.1277     2.5033 S.o2    
  23 C23           10.6423     4.3078     2.1790 C.3     
  24 C24            9.3587     3.5224     1.8926 C.3     
  25 O25           11.6553     2.3643     3.6551 O.2     
  26 O26           13.2248     3.8242     2.4595 O.2     
  27 C27           -1.0583     2.1041     1.7060 C.3     
  28 C28           -1.3694     0.6835     2.1812 C.3     
  29 C29           -0.0912     0.0324     2.7134 C.3     
  30 C30           -2.4168     0.7362     3.2952 C.3     
  31 C31           -1.9112    -0.1389     1.0103 C.3     
  32 Br32           3.9933     1.9604    -2.4042 Br      
  33 H33            4.1612     2.3186     2.5709 H       
  34 H34            1.7405     2.2693     2.8859 H       
  35 H35            9.0190     4.7883    -0.5173 H       
  36 H36            7.5302     6.7287    -0.9653 H       
  37 H37            5.0928     6.4409    -0.8068 H       
  38 H38            7.7392     1.6312     0.8932 H       
  39 H39            9.0718     0.6122    -0.9328 H       
  40 H40            7.4845     1.1559    -1.5271 H       
  41 H41            8.9410     2.1200    -1.8697 H       
  42 H42           10.1298     1.0470     1.8151 H       
  43 H43           10.3497     0.8847     0.0578 H       
  44 H44           12.5339     1.2002     1.1584 H       
  45 H45           12.1500     2.6194     0.1499 H       
  46 H46           10.4949     4.9433     3.0523 H       
  47 H47           10.8955     4.9223     1.3151 H       
  48 H48            8.5334     4.2189     1.7448 H       
  49 H49            9.1354     2.8726     2.7388 H       
  50 H50           -0.6723     2.6900     2.5402 H       
  51 H51           -1.9689     2.5680     1.3268 H       
  52 H52            0.2948     0.6182     3.5476 H       
  53 H53           -0.3128    -0.9797     3.0520 H       
  54 H54            0.6550    -0.0052     1.9198 H       
  55 H55           -3.3274     1.2000     2.9161 H       
  56 H56           -2.6384    -0.2759     3.6338 H       
  57 H57           -2.0308     1.3220     4.1294 H       
  58 H58           -1.1650    -0.1764     0.2166 H       
  59 H59           -2.1328    -1.1510     1.3488 H       
  60 H60           -2.8218     0.3250     0.6311 H       
@<TRIPOS>BOND
   1    1    2 1
   2    1    5 1
   3    1   27 1
   4    2    3 2
   5    3    4 1
   6    4    5 ar
   7    4    6 ar
   8    5    9 ar
   9    6    7 ar
  10    6   32 1
  11    7    8 ar
  12    7   10 1
  13    8    9 ar
  14    8   33 1
  15    9   34 1
  16   10   11 1
  17   11   12 ar
  18   11   16 ar
  19   12   13 ar
  20   12   17 1
  21   13   14 ar
  22   13   35 1
  23   14   15 ar
  24   14   36 1
  25   15   16 ar
  26   15   37 1
  27   17   18 1
  28   17   19 1
  29   17   38 1
  30   18   39 1
  31   18   40 1
  32   18   41 1
  33   19   20 1
  34   19   24 1
  35   20   21 1
  36   20   42 1
  37   20   43 1
  38   21   22 1
  39   21   44 1
  40   21   45 1
  41   22   23 1
  42   22   25 2
  43   22   26 2
  44   23   24 1
  45   23   46 1
  46   23   47 1
  47   24   48 1
  48   24   49 1
  49   27   28 1
  50   27   50 1
  51   27   51 1
  52   28   29 1
  53   28   30 1
  54   28   31 1
  55   29   52 1
  56   29   53 1
  57   29   54 1
  58   30   55 1
  59   30   56 1
  60   30   57 1
  61   31   58 1
  62   31   59 1
  63   31   60 1

#	End of record

