#	Name: ASD02500691
#	Creating user name:	WinNT
#	Creation time:	15. 06. 2019 20:23

#	Modifying user name:	WinNT
#	Modification time:	15. 06. 2019 20:23

#	Program:	/corina/corina34_cracker 3.40 0067  02.08.2006

@<TRIPOS>MOLECULE
ASD02500691
  66   70    0    0    0
SMALL
NO_CHARGES


@<TRIPOS>ATOM
   1 N1            -3.3769     3.8860     1.8966 N.ar    
   2 C2            -4.5989     4.1574     2.2855 C.ar    
   3 C3            -5.1765     3.5239     3.3839 C.ar    
   4 C4            -4.4653     2.5927     4.0855 C.ar    
   5 C5            -3.1534     2.3035     3.6647 C.ar    
   6 C6            -2.3617     1.3585     4.3363 C.ar    
   7 C7            -1.0970     1.1071     3.8984 C.ar    
   8 C8            -0.5775     1.7758     2.7922 C.ar    
   9 C9            -1.3172     2.6979     2.1176 C.ar    
  10 C10           -2.6270     2.9849     2.5392 C.ar    
  11 S11           -0.6352     3.5295     0.7220 S.o2    
  12 O12           -0.8728     4.9157     0.9252 O.2     
  13 O13            0.6621     2.9842     0.5244 O.2     
  14 N14           -1.5333     3.0897    -0.5979 N.am    
  15 C15           -1.6064     1.7532    -0.9752 C.ar    
  16 C16           -2.8384     1.1852    -1.2768 C.ar    
  17 C17           -2.9111    -0.1443    -1.6525 C.ar    
  18 C18           -1.7369    -0.9107    -1.7262 C.ar    
  19 C19           -0.5048    -0.3244    -1.4195 C.ar    
  20 C20           -0.4435     0.9897    -1.0550 C.ar    
  21 C21           -1.8026    -2.3265    -2.1245 C.2     
  22 O22           -2.5608    -3.0851    -1.5508 O.2     
  23 N23           -1.0227    -2.7821    -3.1248 N.am    
  24 C24           -1.1256    -4.1741    -3.5882 C.3     
  25 C25           -1.2935    -4.1689    -5.1114 C.3     
  26 N26           -0.2050    -3.3912    -5.7181 N.3     
  27 C27           -0.2563    -1.9847    -5.2974 C.3     
  28 C28           -0.0502    -1.8987    -3.7859 C.3     
  29 C29           -0.2304    -3.5038    -7.1826 C.3     
  30 O30            3.1213    -2.9917    -8.5018 O.3     
  31 C31            2.2626    -3.1053    -7.3610 C.3     
  32 C32            0.8607    -2.6141    -7.7815 C.3     
  33 C33            0.9090    -2.7630    -9.3267 C.3     
  34 C34            2.3962    -2.4309    -9.6078 C.3     
  35 O35           -4.1108    -0.7047    -1.9478 O.3     
  36 C36           -5.2616     0.1368    -1.8501 C.3     
  37 H37           -5.1732     4.8917     1.7402 H       
  38 H38           -6.1856     3.7694     3.6805 H       
  39 H39           -4.8973     2.0923     4.9396 H       
  40 H40           -2.7532     0.8342     5.1955 H       
  41 H41           -0.4887     0.3800     4.4157 H       
  42 H42            0.4287     1.5593     2.4648 H       
  43 H43           -2.0085     3.7642    -1.1079 H       
  44 H44           -3.7375     1.7806    -1.2176 H       
  45 H45            0.4002    -0.9112    -1.4753 H       
  46 H46            0.5109     1.4390    -0.8234 H       
  47 H47           -0.2187    -4.7168    -3.3216 H       
  48 H48           -1.9901    -4.6509    -3.1262 H       
  49 H49           -1.2609    -5.1926    -5.4844 H       
  50 H50           -2.2513    -3.7174    -5.3702 H       
  51 H51            0.5286    -1.4242    -5.8053 H       
  52 H52           -1.2285    -1.5636    -5.5536 H       
  53 H53           -0.2040    -0.8717    -3.4546 H       
  54 H54            0.9621    -2.2184    -3.5388 H       
  55 H55           -0.0528    -4.5401    -7.4704 H       
  56 H56           -1.2040    -3.1851    -7.5547 H       
  57 H57            2.2091    -4.1458    -7.0406 H       
  58 H58            2.6431    -2.4861    -6.5487 H       
  59 H59            0.7118    -1.5734    -7.4935 H       
  60 H60            0.6698    -3.7820    -9.6308 H       
  61 H61            0.2477    -2.0448    -9.8114 H       
  62 H62            2.5418    -1.3514    -9.6473 H       
  63 H63            2.7164    -2.8911   -10.5425 H       
  64 H64           -6.1524    -0.4341    -2.1121 H       
  65 H65           -5.3549     0.5077    -0.8294 H       
  66 H66           -5.1552     0.9786    -2.5343 H       
@<TRIPOS>BOND
   1    1    2 ar
   2    1   10 ar
   3    2    3 ar
   4    2   37 1
   5    3    4 ar
   6    3   38 1
   7    4    5 ar
   8    4   39 1
   9    5    6 ar
  10    5   10 ar
  11    6    7 ar
  12    6   40 1
  13    7    8 ar
  14    7   41 1
  15    8    9 ar
  16    8   42 1
  17    9   10 ar
  18    9   11 1
  19   11   12 2
  20   11   13 2
  21   11   14 am
  22   14   15 1
  23   14   43 1
  24   15   16 ar
  25   15   20 ar
  26   16   17 ar
  27   16   44 1
  28   17   18 ar
  29   17   35 1
  30   18   19 ar
  31   18   21 1
  32   19   20 ar
  33   19   45 1
  34   20   46 1
  35   21   22 2
  36   21   23 am
  37   23   24 1
  38   23   28 1
  39   24   25 1
  40   24   47 1
  41   24   48 1
  42   25   26 1
  43   25   49 1
  44   25   50 1
  45   26   27 1
  46   26   29 1
  47   27   28 1
  48   27   51 1
  49   27   52 1
  50   28   53 1
  51   28   54 1
  52   29   32 1
  53   29   55 1
  54   29   56 1
  55   30   31 1
  56   30   34 1
  57   31   32 1
  58   31   57 1
  59   31   58 1
  60   32   33 1
  61   32   59 1
  62   33   34 1
  63   33   60 1
  64   33   61 1
  65   34   62 1
  66   34   63 1
  67   35   36 1
  68   36   64 1
  69   36   65 1
  70   36   66 1

#	End of record

