#	Name: ASD03740028
#	Creating user name:	WinNT
#	Creation time:	15. 06. 2019 20:46

#	Modifying user name:	WinNT
#	Modification time:	15. 06. 2019 20:46

#	Program:	/corina/corina34_cracker 3.40 0067  02.08.2006

@<TRIPOS>MOLECULE
ASD03740028
  43   45    0    0    0
SMALL
NO_CHARGES


@<TRIPOS>ATOM
   1 C1            -0.1957     2.3594    -1.5595 C.ar    
   2 C2            -0.3775     0.9855    -1.6556 C.ar    
   3 C3             0.6621     0.1255    -1.4403 C.ar    
   4 C4             1.9215     0.6268    -1.1207 C.ar    
   5 C5             2.1073     2.0193    -1.0234 C.ar    
   6 C6             1.0278     2.8789    -1.2478 C.ar    
   7 N7             3.1338     0.0461    -0.8535 N.pl3   
   8 N8             4.0746     1.0471    -0.5909 N.2     
   9 C9             3.5144     2.2226    -0.6799 C.2     
  10 O10            4.1283     3.4201    -0.4883 O.3     
  11 C11            3.4015    -1.3942    -0.8436 C.3     
  12 C12            5.5182     3.3911    -0.1576 C.3     
  13 C13            6.0306     4.8220     0.0185 C.3     
  14 N14            5.3715     5.4389     1.1774 N.3     
  15 C15            5.9339     4.9300     2.4355 C.3     
  16 C16            5.4605     6.9039     1.1155 C.3     
  17 C17            3.8224    -1.8364    -2.2214 C.ar    
  18 C18            5.1594    -1.8247    -2.5727 C.ar    
  19 C19            5.5455    -2.2302    -3.8365 C.ar    
  20 C20            4.5948    -2.6479    -4.7490 C.ar    
  21 C21            3.2579    -2.6604    -4.3974 C.ar    
  22 C22            2.8722    -2.2590    -3.1321 C.ar    
  23 H23           -1.0291     3.0230    -1.7375 H       
  24 H24           -1.3524     0.5925    -1.9032 H       
  25 H25            0.5075    -0.9406    -1.5173 H       
  26 H26            1.1612     3.9482    -1.1756 H       
  27 H27            4.1992    -1.6107    -0.1330 H       
  28 H28            2.4985    -1.9296    -0.5503 H       
  29 H29            5.6594     2.8378     0.7708 H       
  30 H30            6.0723     2.9029    -0.9594 H       
  31 H31            7.1084     4.8047     0.1802 H       
  32 H32            5.8068     5.4009    -0.8775 H       
  33 H33            6.9988     5.1589     2.4762 H       
  34 H34            5.4281     5.4030     3.2772 H       
  35 H35            5.7921     3.8504     2.4865 H       
  36 H36            4.9854     7.2584     0.2008 H       
  37 H37            4.9540     7.3354     1.9788 H       
  38 H38            6.5081     7.2048     1.1210 H       
  39 H39            5.9022    -1.4984    -1.8598 H       
  40 H40            6.5900    -2.2204    -4.1112 H       
  41 H41            4.8964    -2.9640    -5.7367 H       
  42 H42            2.5151    -2.9864    -5.1104 H       
  43 H43            1.8281    -2.2724    -2.8562 H       
@<TRIPOS>BOND
   1    1    2 ar
   2    1    6 ar
   3    1   23 1
   4    2    3 ar
   5    2   24 1
   6    3    4 ar
   7    3   25 1
   8    4    5 ar
   9    4    7 1
  10    5    6 ar
  11    5    9 1
  12    6   26 1
  13    7    8 1
  14    7   11 1
  15    8    9 2
  16    9   10 1
  17   10   12 1
  18   11   17 1
  19   11   27 1
  20   11   28 1
  21   12   13 1
  22   12   29 1
  23   12   30 1
  24   13   14 1
  25   13   31 1
  26   13   32 1
  27   14   15 1
  28   14   16 1
  29   15   33 1
  30   15   34 1
  31   15   35 1
  32   16   36 1
  33   16   37 1
  34   16   38 1
  35   17   18 ar
  36   17   22 ar
  37   18   19 ar
  38   18   39 1
  39   19   20 ar
  40   19   40 1
  41   20   21 ar
  42   20   41 1
  43   21   22 ar
  44   21   42 1
  45   22   43 1

#	End of record

