#	Name: ASD01001235
#	Creating user name:	WinNT
#	Creation time:	15. 06. 2019 18:55

#	Modifying user name:	WinNT
#	Modification time:	15. 06. 2019 18:55

#	Program:	/corina/corina34_cracker 3.40 0067  02.08.2006

@<TRIPOS>MOLECULE
ASD01001235
  46   49    0    0    0
SMALL
NO_CHARGES


@<TRIPOS>ATOM
   1 C1            -0.2463     2.3840    -0.2311 C.ar    
   2 C2            -0.0009     1.0205    -0.3328 C.ar    
   3 C3            -1.0405     0.1171    -0.3155 C.ar    
   4 C4            -2.3504     0.5674    -0.1952 C.ar    
   5 C5            -2.6010     1.9493    -0.0920 C.ar    
   6 C6            -1.5354     2.8518    -0.1061 C.ar    
   7 N7            -3.5705    -0.0732    -0.1484 N.pl3   
   8 C8            -4.5728     0.8452    -0.0225 C.2     
   9 C9            -4.0506     2.0860     0.0194 C.2     
  10 C10           -6.0575     0.5633     0.0564 C.3     
  11 N11           -6.7231     1.8146     0.4577 N.am    
  12 C12           -6.3112     3.0661    -0.1956 C.3     
  13 C13           -4.8481     3.3564     0.1616 C.3     
  14 C14           -6.5672     0.1214    -1.2912 C.ar    
  15 C15           -7.2555    -1.0713    -1.4121 C.ar    
  16 C16           -7.7241    -1.4798    -2.6474 C.ar    
  17 C17           -7.5054    -0.6965    -3.7638 C.ar    
  18 C18           -6.8152     0.5013    -3.6451 C.ar    
  19 C19           -6.3510     0.9115    -2.4039 C.ar    
  20 Cl20           1.0800     3.5038    -0.2545 Cl      
  21 C21           -7.6863     1.8125     1.4004 C.2     
  22 O22           -6.5982     1.2736    -4.7421 O.3     
  23 C23           -8.3552     3.1033     1.7971 C.3     
  24 O24           -8.0148     0.7717     1.9294 O.2     
  25 C25           -9.4024     2.8242     2.8771 C.3     
  26 N26          -10.0544     4.0825     3.2638 N.3     
  27 H27            1.0148     0.6654    -0.4267 H       
  28 H28           -0.8383    -0.9408    -0.3957 H       
  29 H29           -1.7221     3.9126    -0.0270 H       
  30 H30           -3.6978    -1.0335    -0.1979 H       
  31 H31           -6.2484    -0.2123     0.7981 H       
  32 H32           -6.4095     2.9631    -1.2762 H       
  33 H33           -6.9413     3.8843     0.1533 H       
  34 H34           -4.7869     3.7127     1.1899 H       
  35 H35           -4.4509     4.1144    -0.5136 H       
  36 H36           -7.4273    -1.6854    -0.5404 H       
  37 H37           -8.2613    -2.4122    -2.7394 H       
  38 H38           -7.8709    -1.0162    -4.7285 H       
  39 H39           -5.8136     1.8434    -2.3088 H       
  40 H40           -7.2964     1.9209    -4.9117 H       
  41 H41           -7.6080     3.7953     2.1857 H       
  42 H42           -8.8402     3.5439     0.9260 H       
  43 H43          -10.1496     2.1323     2.4885 H       
  44 H44           -8.9174     2.3836     3.7482 H       
  45 H45          -10.7509     3.9247     3.9766 H       
  46 H46           -9.3746     4.7637     3.5670 H       
@<TRIPOS>BOND
   1    1    2 ar
   2    1   20 1
   3    1    6 ar
   4    2    3 ar
   5    2   27 1
   6    3    4 ar
   7    3   28 1
   8    4    5 ar
   9    4    7 1
  10    5    6 ar
  11    5    9 1
  12    6   29 1
  13    7    8 1
  14    7   30 1
  15    8    9 2
  16    8   10 1
  17    9   13 1
  18   10   11 1
  19   10   14 1
  20   10   31 1
  21   11   12 1
  22   11   21 am
  23   12   13 1
  24   12   32 1
  25   12   33 1
  26   13   34 1
  27   13   35 1
  28   14   15 ar
  29   14   19 ar
  30   15   16 ar
  31   15   36 1
  32   16   17 ar
  33   16   37 1
  34   17   18 ar
  35   17   38 1
  36   18   19 ar
  37   18   22 1
  38   19   39 1
  39   21   23 1
  40   21   24 2
  41   22   40 1
  42   23   25 1
  43   23   41 1
  44   23   42 1
  45   25   26 1
  46   25   43 1
  47   25   44 1
  48   26   45 1
  49   26   46 1

#	End of record

