#	Name: ASD04910321
#	Creating user name:	WinNT
#	Creation time:	15. 06. 2019 20:55

#	Modifying user name:	WinNT
#	Modification time:	15. 06. 2019 20:55

#	Program:	/corina/corina34_cracker 3.40 0067  02.08.2006

@<TRIPOS>MOLECULE
ASD04910321
  60   62    0    0    0
SMALL
NO_CHARGES


@<TRIPOS>ATOM
   1 C1             0.1211     1.2159    -0.2911 C.ar    
   2 C2             0.3250    -0.1521    -0.3265 C.ar    
   3 C3            -0.7297    -1.0033    -0.5838 C.ar    
   4 C4            -2.0047    -0.4817    -0.8082 C.ar    
   5 C5            -2.2037     0.8993    -0.7706 C.ar    
   6 C6            -1.1415     1.7392    -0.5070 C.ar    
   7 C7             1.2780     2.1398    -0.0099 C.3     
   8 O8             1.1202     3.3437    -0.7635 O.3     
   9 C9             2.2418     3.8783    -1.3144 C.ar    
  10 C10            1.3131     2.4735     1.4828 C.3     
  11 C11            3.4827     3.3222    -1.0364 C.ar    
  12 C12            2.1435     4.9757    -2.1585 C.ar    
  13 C13            3.2801     5.5204    -2.7191 C.ar    
  14 C14            4.5277     4.9678    -2.4373 C.ar    
  15 C15            4.6228     3.8629    -1.5939 C.ar    
  16 C16            5.7528     5.5514    -3.0396 C.2     
  17 C17            6.7935     6.1681    -2.4053 C.2     
  18 O18            7.6594     6.5243    -3.3645 O.3     
  19 N19            7.2706     6.2031    -4.4627 N.2     
  20 C20            6.1225     5.5947    -4.4132 C.2     
  21 C21           -3.1395    -1.3881    -1.0850 C.2     
  22 N22           -4.3695    -0.8813    -1.3012 N.am    
  23 O23           -2.9632    -2.5903    -1.1175 O.2     
  24 C24           -5.4940    -1.7794    -1.5755 C.3     
  25 C25           -6.7663    -0.9551    -1.7823 C.3     
  26 C26           -7.9230    -1.8789    -2.0644 C.2     
  27 O27           -7.7478    -3.0740    -2.0968 O.2     
  28 O28           -9.1480    -1.3742    -2.2798 O.3     
  29 C29            2.5576     3.3090     1.7895 C.3     
  30 C30            2.5927     3.6426     3.2823 C.3     
  31 C31            5.3352     5.0535    -5.5786 C.3     
  32 C32            6.9389     6.4016    -0.9236 C.3     
  33 H33            1.3121    -0.5544    -0.1527 H       
  34 H34           -0.5691    -2.0710    -0.6119 H       
  35 H35           -3.1878     1.3092    -0.9433 H       
  36 H36           -1.2940     2.8079    -0.4776 H       
  37 H37            2.2101     1.6521    -0.2953 H       
  38 H38            0.4206     3.0395     1.7497 H       
  39 H39            1.3440     1.5499     2.0609 H       
  40 H40            3.5558     2.4655    -0.3828 H       
  41 H41            1.1761     5.4034    -2.3768 H       
  42 H42            3.2030     6.3741    -3.3761 H       
  43 H43            5.5886     3.4328    -1.3734 H       
  44 H44           -4.5102     0.0781    -1.2752 H       
  45 H45           -5.2857    -2.3580    -2.4754 H       
  46 H46           -5.6325    -2.4561    -0.7323 H       
  47 H47           -6.9746    -0.3764    -0.8824 H       
  48 H48           -6.6278    -0.2784    -2.6255 H       
  49 H49           -9.8583    -2.0061    -2.4567 H       
  50 H50            3.4500     2.7430     1.5226 H       
  51 H51            2.5266     4.2326     1.2115 H       
  52 H52            3.4793     4.2379     3.5008 H       
  53 H53            1.7002     4.2086     3.5492 H       
  54 H54            2.6236     2.7191     3.8604 H       
  55 H55            5.6280     4.0206    -5.7666 H       
  56 H56            4.2706     5.0931    -5.3477 H       
  57 H57            5.5374     5.6555    -6.4645 H       
  58 H58            7.4517     5.5532    -0.4706 H       
  59 H59            7.5183     7.3092    -0.7540 H       
  60 H60            5.9518     6.5116    -0.4746 H       
@<TRIPOS>BOND
   1    1    2 ar
   2    1    7 1
   3    1    6 ar
   4    2    3 ar
   5    2   33 1
   6    3    4 ar
   7    3   34 1
   8    4    5 ar
   9    4   21 1
  10    5    6 ar
  11    5   35 1
  12    6   36 1
  13    7    8 1
  14    7   10 1
  15    7   37 1
  16    8    9 1
  17    9   11 ar
  18    9   12 ar
  19   10   29 1
  20   10   38 1
  21   10   39 1
  22   11   15 ar
  23   11   40 1
  24   12   13 ar
  25   12   41 1
  26   13   14 ar
  27   13   42 1
  28   14   15 ar
  29   14   16 1
  30   15   43 1
  31   16   17 2
  32   16   20 1
  33   17   18 1
  34   17   32 1
  35   18   19 1
  36   19   20 2
  37   20   31 1
  38   21   22 am
  39   21   23 2
  40   22   24 1
  41   22   44 1
  42   24   25 1
  43   24   45 1
  44   24   46 1
  45   25   26 1
  46   25   47 1
  47   25   48 1
  48   26   27 2
  49   26   28 1
  50   28   49 1
  51   29   30 1
  52   29   50 1
  53   29   51 1
  54   30   52 1
  55   30   53 1
  56   30   54 1
  57   31   55 1
  58   31   56 1
  59   31   57 1
  60   32   58 1
  61   32   59 1
  62   32   60 1

#	End of record

