#	Name: ASD01913304
#	Creating user name:	WinNT
#	Creation time:	15. 06. 2019 20:01

#	Modifying user name:	WinNT
#	Modification time:	15. 06. 2019 20:01

#	Program:	/corina/corina34_cracker 3.40 0067  02.08.2006

@<TRIPOS>MOLECULE
ASD01913304
  41   43    0    0    0
SMALL
NO_CHARGES


@<TRIPOS>ATOM
   1 C1            -0.0169     1.3971     0.0097 C.ar    
   2 C2             0.0021    -0.0041     0.0020 C.ar    
   3 C3             1.2454    -0.6502    -0.0133 C.ar    
   4 N4             2.3460     0.0795    -0.0199 N.ar    
   5 C5             2.2851     1.4038    -0.0122 C.ar    
   6 N6             1.1293     2.0528     0.0023 N.ar    
   7 N7             3.4624     2.1297    -0.0191 N.pl3   
   8 C8            -1.2168    -0.7557     0.0101 C.1     
   9 C9            -2.2161    -1.3719     0.0167 C.1     
  10 C10           -3.4349    -2.1235     0.0248 C.ar    
  11 C11           -3.3984    -3.5204     0.0169 C.ar    
  12 C12           -4.5764    -4.2376     0.0252 C.ar    
  13 C13           -5.7924    -3.5773     0.0409 C.ar    
  14 C14           -5.8364    -2.1942     0.0487 C.ar    
  15 C15           -4.6665    -1.4637     0.0464 C.ar    
  16 C16            3.4200     3.5941    -0.0108 C.3     
  17 C17            4.8471     4.1457    -0.0209 C.3     
  18 C18            4.8055     5.6724    -0.1381 C.3     
  19 C19            6.2332     6.2208    -0.0682 C.3     
  20 O20            6.8429     5.8035     1.1550 O.3     
  21 C21            6.9520     4.3859     1.2986 C.3     
  22 C22            5.5533     3.7638     1.2836 C.3     
  23 H23           -0.9548     1.9326     0.0171 H       
  24 H24            1.3027    -1.7287    -0.0193 H       
  25 H25            4.3161     1.6693    -0.0294 H       
  26 H26           -2.4501    -4.0371     0.0040 H       
  27 H27           -4.5498    -5.3173     0.0192 H       
  28 H28           -6.7117    -4.1441     0.0466 H       
  29 H29           -6.7890    -1.6856     0.0606 H       
  30 H30           -4.7023    -0.3843     0.0525 H       
  31 H31            2.8877     3.9472    -0.8941 H       
  32 H32            2.9041     3.9376     0.8858 H       
  33 H33            5.3928     3.7296    -0.8678 H       
  34 H34            4.3539     5.9525    -1.0898 H       
  35 H35            4.2164     6.0847     0.6810 H       
  36 H36            6.8105     5.8400    -0.9106 H       
  37 H37            6.2066     7.3097    -0.1081 H       
  38 H38            7.5388     3.9810     0.4740 H       
  39 H39            7.4433     4.1530     2.2433 H       
  40 H40            4.9793     4.1375     2.1315 H       
  41 H41            5.6365     2.6789     1.3487 H       
@<TRIPOS>BOND
   1    1    2 ar
   2    1    6 ar
   3    1   23 1
   4    2    3 ar
   5    2    8 1
   6    3    4 ar
   7    3   24 1
   8    4    5 ar
   9    5    6 ar
  10    5    7 1
  11    7   16 1
  12    7   25 1
  13    8    9 3
  14    9   10 1
  15   10   11 ar
  16   10   15 ar
  17   11   12 ar
  18   11   26 1
  19   12   13 ar
  20   12   27 1
  21   13   14 ar
  22   13   28 1
  23   14   15 ar
  24   14   29 1
  25   15   30 1
  26   16   17 1
  27   16   31 1
  28   16   32 1
  29   17   18 1
  30   17   22 1
  31   17   33 1
  32   18   19 1
  33   18   34 1
  34   18   35 1
  35   19   20 1
  36   19   36 1
  37   19   37 1
  38   20   21 1
  39   21   22 1
  40   21   38 1
  41   21   39 1
  42   22   40 1
  43   22   41 1

#	End of record

