#	Name: ASD01885049
#	Creating user name:	WinNT
#	Creation time:	15. 06. 2019 19:49

#	Modifying user name:	WinNT
#	Modification time:	15. 06. 2019 19:49

#	Program:	/corina/corina34_cracker 3.40 0067  02.08.2006

@<TRIPOS>MOLECULE
ASD01885049
  40   42    0    0    0
SMALL
NO_CHARGES


@<TRIPOS>ATOM
   1 N1            -0.0162     1.3436     0.0094 N.am    
   2 C2             0.0021    -0.0041     0.0020 C.2     
   3 O3             1.0625    -0.5973    -0.0113 O.2     
   4 C4            -1.2708    -0.7622     0.0101 C.ar    
   5 C5            -1.2430    -2.1510     0.0082 C.ar    
   6 C6            -2.4546    -2.8494     0.0186 C.ar    
   7 C7            -3.6451    -2.1188     0.0306 C.ar    
   8 C8            -4.9558    -2.8610     0.0529 C.3     
   9 C9            -6.0876    -1.9197    -0.3680 C.3     
  10 C10           -5.9437    -0.6118     0.4206 C.3     
  11 H11           -5.9191    -0.8287     1.4885 H       
  12 C12           -7.1257     0.3087     0.1099 C.3     
  13 O13           -7.0501     1.4750     0.9322 O.3     
  14 C14           -8.1135     2.4057     0.7199 C.3     
  15 F15           -8.0970     2.8370    -0.6109 F       
  16 F16           -9.3373     1.7859     0.9941 F       
  17 O17           -4.7235     0.0190     0.0308 O.3     
  18 C18           -3.5930    -0.7329     0.0277 C.ar    
  19 N19           -2.4246    -0.1071     0.0246 N.ar    
  20 C20           -2.4751    -4.3324     0.0166 C.ar    
  21 C21           -1.9703    -5.0399     1.1056 C.ar    
  22 C22           -1.9916    -6.4194     1.0999 C.ar    
  23 C23           -2.5136    -7.1030     0.0134 C.ar    
  24 F24           -2.5318    -8.4539     0.0134 F       
  25 C25           -3.0171    -6.4059    -1.0726 C.ar    
  26 C26           -3.0056    -5.0240    -1.0741 C.ar    
  27 F27           -3.5018    -4.3439    -2.1307 F       
  28 H28            0.8172     1.8399     0.0041 H       
  29 H29           -0.8627     1.8171     0.0160 H       
  30 H30           -0.3026    -2.6820    -0.0016 H       
  31 H31           -4.9079    -3.7025    -0.6382 H       
  32 H32           -5.1467    -3.2301     1.0605 H       
  33 H33           -6.0170    -1.7145    -1.4361 H       
  34 H34           -7.0503    -2.3796    -0.1445 H       
  35 H35           -7.0923     0.6012    -0.9395 H       
  36 H36           -8.0588    -0.2177     0.3109 H       
  37 H37           -7.9838     3.2624     1.3812 H       
  38 H38           -1.5624    -4.5091     1.9531 H       
  39 H39           -1.6003    -6.9678     1.9440 H       
  40 H40           -3.4226    -6.9429    -1.9173 H       
@<TRIPOS>BOND
   1    1    2 am
   2    1   28 1
   3    1   29 1
   4    2    3 2
   5    2    4 1
   6    4   19 ar
   7    4    5 ar
   8    5    6 ar
   9    5   30 1
  10    6    7 ar
  11    6   20 1
  12    7   18 ar
  13    7    8 1
  14    8    9 1
  15    8   31 1
  16    8   32 1
  17    9   10 1
  18    9   33 1
  19    9   34 1
  20   10   11 1
  21   10   12 1
  22   10   17 1
  23   12   13 1
  24   12   35 1
  25   12   36 1
  26   13   14 1
  27   14   15 1
  28   14   16 1
  29   14   37 1
  30   17   18 1
  31   18   19 ar
  32   20   26 ar
  33   20   21 ar
  34   21   22 ar
  35   21   38 1
  36   22   23 ar
  37   22   39 1
  38   23   24 1
  39   23   25 ar
  40   25   26 ar
  41   25   40 1
  42   26   27 1

#	End of record

