#	Name: ASD04882503
#	Creating user name:	WinNT
#	Creation time:	15. 06. 2019 20:54

#	Modifying user name:	WinNT
#	Modification time:	15. 06. 2019 20:54

#	Program:	/corina/corina34_cracker 3.40 0067  02.08.2006

@<TRIPOS>MOLECULE
ASD04882503
  75   79    0    0    0
SMALL
NO_CHARGES


@<TRIPOS>ATOM
   1 C1            -0.0215     1.4013    -0.0094 C.ar    
   2 C2            -0.0117     0.0037    -0.0051 C.ar    
   3 C3            -1.2095    -0.7018    -0.0165 C.ar    
   4 C4            -2.4098    -0.0266    -0.0315 C.ar    
   5 C5            -2.4268     1.3710    -0.0354 C.ar    
   6 C6            -1.2240     2.0827    -0.0192 C.ar    
   7 N7             1.1996    -0.6831     0.0100 N.3     
   8 C8             1.3065    -1.5360     1.2020 C.3     
   9 C9             1.3723    -1.4734    -1.2168 C.3     
  10 C10            2.7461    -2.1477    -1.1969 C.3     
  11 N11            2.8530    -3.0007    -0.0050 N.3     
  12 C12            2.6803    -2.2103     1.2219 C.3     
  13 C13           -3.7127     2.0940    -0.0514 C.2     
  14 O14           -3.7266     3.3099    -0.0548 O.2     
  15 N15           -4.8721     1.4068    -0.0624 N.am    
  16 N16            1.1863     2.1109     0.0021 N.am    
  17 C17            4.0680    -3.6895     0.0103 C.ar    
  18 C18            1.2294     3.3599     0.5068 C.2     
  19 C19            2.5092     4.0695     0.5995 C.2     
  20 O20            0.2059     3.8988     0.8856 O.2     
  21 C21            2.6935     5.3314     1.0877 C.2     
  22 C22            4.0665     5.6058     0.9887 C.2     
  23 C23            4.6527     4.5133     0.4513 C.2     
  24 O24            3.7118     3.5878     0.2228 O.3     
  25 C25            5.2665    -2.9870     0.0269 C.ar    
  26 C26            4.0807    -5.0784     0.0145 C.ar    
  27 C27            5.2839    -5.7564     0.0295 C.ar    
  28 C28            6.4749    -5.0542     0.0408 C.ar    
  29 C29            6.4658    -3.6711     0.0419 C.ar    
  30 C30            2.7831    -5.8446     0.0033 C.3     
  31 C31           -6.1490     2.1247    -0.0783 C.3     
  32 C32           -7.3004     1.1173    -0.0883 C.3     
  33 C33           -8.6140     1.8558    -0.1047 C.ar    
  34 C34           -9.2032     2.1914    -1.3093 C.ar    
  35 C35          -10.4081     2.8688    -1.3243 C.ar    
  36 C36          -11.0239     3.2104    -0.1348 C.ar    
  37 C37          -10.4351     2.8740     1.0698 C.ar    
  38 C38           -9.2324     2.1927     1.0848 C.ar    
  39 C39          -12.3369     3.9498    -0.1512 C.3     
  40 N40          -13.4431     2.9833    -0.1618 N.3     
  41 H41           -1.1988    -1.7817    -0.0139 H       
  42 H42           -3.3386    -0.5775    -0.0406 H       
  43 H43           -1.2341     3.1627    -0.0218 H       
  44 H44            1.1878    -0.9260     2.0975 H       
  45 H45            0.5277    -2.2981     1.1748 H       
  46 H46            0.5943    -2.2348    -1.2714 H       
  47 H47            1.3016    -0.8178    -2.0847 H       
  48 H48            2.8648    -2.7577    -2.0924 H       
  49 H49            3.5249    -1.3856    -1.1697 H       
  50 H50            3.4584    -1.4489     1.2765 H       
  51 H51            2.7511    -2.8659     2.0898 H       
  52 H52           -4.8610     0.4369    -0.0597 H       
  53 H53            1.9917     1.7034    -0.3532 H       
  54 H54            1.9306     5.9908     1.4744 H       
  55 H55            4.5614     6.5185     1.2862 H       
  56 H56            5.7068     4.4031     0.2437 H       
  57 H57            5.2601    -1.9070     0.0278 H       
  58 H58            5.2945    -6.8364     0.0329 H       
  59 H59            7.4143    -5.5868     0.0532 H       
  60 H60            7.3979    -3.1256     0.0507 H       
  61 H61            2.4809    -6.0324    -1.0270 H       
  62 H62            2.9174    -6.7942     0.5214 H       
  63 H63            2.0124    -5.2615     0.5074 H       
  64 H64           -6.2237     2.7531     0.8093 H       
  65 H65           -6.2041     2.7483    -0.9706 H       
  66 H66           -7.2258     0.4890    -0.9758 H       
  67 H67           -7.2453     0.4937     0.8040 H       
  68 H68           -8.7221     1.9245    -2.2387 H       
  69 H69          -10.8681     3.1316    -2.2654 H       
  70 H70          -10.9160     3.1411     1.9992 H       
  71 H71           -8.7723     1.9299     2.0260 H       
  72 H72          -12.4115     4.5776     0.7368 H       
  73 H73          -12.3913     4.5740    -1.0431 H       
  74 H74          -13.3781     2.3507     0.6216 H       
  75 H75          -14.3351     3.4547    -0.1729 H       
@<TRIPOS>BOND
   1    1    2 ar
   2    1   16 1
   3    1    6 ar
   4    2    3 ar
   5    2    7 1
   6    3    4 ar
   7    3   41 1
   8    4    5 ar
   9    4   42 1
  10    5    6 ar
  11    5   13 1
  12    6   43 1
  13    7    8 1
  14    7    9 1
  15    8   12 1
  16    8   44 1
  17    8   45 1
  18    9   10 1
  19    9   46 1
  20    9   47 1
  21   10   11 1
  22   10   48 1
  23   10   49 1
  24   11   12 1
  25   11   17 1
  26   12   50 1
  27   12   51 1
  28   13   14 2
  29   13   15 am
  30   15   31 1
  31   15   52 1
  32   16   18 am
  33   16   53 1
  34   17   26 ar
  35   17   25 ar
  36   18   19 1
  37   18   20 2
  38   19   21 2
  39   19   24 1
  40   21   22 1
  41   21   54 1
  42   22   23 2
  43   22   55 1
  44   23   24 1
  45   23   56 1
  46   25   29 ar
  47   25   57 1
  48   26   27 ar
  49   26   30 1
  50   27   28 ar
  51   27   58 1
  52   28   29 ar
  53   28   59 1
  54   29   60 1
  55   30   61 1
  56   30   62 1
  57   30   63 1
  58   31   32 1
  59   31   64 1
  60   31   65 1
  61   32   33 1
  62   32   66 1
  63   32   67 1
  64   33   34 ar
  65   33   38 ar
  66   34   35 ar
  67   34   68 1
  68   35   36 ar
  69   35   69 1
  70   36   37 ar
  71   36   39 1
  72   37   38 ar
  73   37   70 1
  74   38   71 1
  75   39   40 1
  76   39   72 1
  77   39   73 1
  78   40   74 1
  79   40   75 1

#	End of record

