#	Name: ASD01410397
#	Creating user name:	WinNT
#	Creation time:	15. 06. 2019 19:17

#	Modifying user name:	WinNT
#	Modification time:	15. 06. 2019 19:17

#	Program:	/corina/corina34_cracker 3.40 0067  02.08.2006

@<TRIPOS>MOLECULE
ASD01410397
  35   37    0    0    0
SMALL
NO_CHARGES


@<TRIPOS>ATOM
   1 S1             0.0259     1.7529    -0.4495 S.3     
   2 C2             0.0315    -0.0132    -0.3029 C.2     
   3 N3             1.2814    -0.3741     0.0091 N.am    
   4 C4             2.2139     0.5542     0.1433 C.2     
   5 C5             1.7514     1.9318    -0.0745 C.2     
   6 O6             3.3670     0.2877     0.4260 O.2     
   7 S7            -1.3072    -1.0582    -0.5193 S.2     
   8 C8             2.4760     3.0761    -0.0051 C.2     
   9 C9             1.8028     4.3793    -0.1021 C.ar    
  10 C10            0.4724     4.5292     0.3190 C.ar    
  11 C11           -0.1133     5.7766     0.2065 C.ar    
  12 C12            0.6232     6.8274    -0.3124 C.ar    
  13 N13            1.8727     6.6589    -0.7014 N.ar    
  14 C14            2.4788     5.4938    -0.6103 C.ar    
  15 N15            1.6002    -1.7259     0.1928 N.am    
  16 S16            2.1039    -2.6400    -1.0929 S.o2    
  17 O17            2.4895    -3.9006    -0.5625 O.2     
  18 O18            1.1154    -2.4912    -2.1029 O.2     
  19 C19            3.5720    -1.8940    -1.7199 C.ar    
  20 C20            4.8059    -2.2764    -1.2280 C.ar    
  21 C21            5.9576    -1.6911    -1.7199 C.ar    
  22 C22            5.8754    -0.7237    -2.7039 C.ar    
  23 C23            4.6415    -0.3420    -3.1964 C.ar    
  24 C24            3.4900    -0.9304    -2.7076 C.ar    
  25 H25            3.5476     3.0298     0.1215 H       
  26 H26           -0.0796     3.6921     0.7201 H       
  27 H27           -1.1354     5.9295     0.5201 H       
  28 H28            0.1670     7.8023    -0.4009 H       
  29 H29            3.5044     5.3965    -0.9345 H       
  30 H30            1.5258    -2.1265     1.0731 H       
  31 H31            4.8702    -3.0322    -0.4593 H       
  32 H32            6.9217    -1.9894    -1.3351 H       
  33 H33            6.7751    -0.2659    -3.0876 H       
  34 H34            4.5772     0.4141    -3.9649 H       
  35 H35            2.5260    -0.6321    -3.0924 H       
@<TRIPOS>BOND
   1    1    2 1
   2    1    5 1
   3    2    3 am
   4    2    7 2
   5    3    4 am
   6    3   15 1
   7    4    5 1
   8    4    6 2
   9    5    8 2
  10    8    9 1
  11    8   25 1
  12    9   10 ar
  13    9   14 ar
  14   10   11 ar
  15   10   26 1
  16   11   12 ar
  17   11   27 1
  18   12   13 ar
  19   12   28 1
  20   13   14 ar
  21   14   29 1
  22   15   16 am
  23   15   30 1
  24   16   17 2
  25   16   18 2
  26   16   19 1
  27   19   20 ar
  28   19   24 ar
  29   20   21 ar
  30   20   31 1
  31   21   22 ar
  32   21   32 1
  33   22   23 ar
  34   22   33 1
  35   23   24 ar
  36   23   34 1
  37   24   35 1

#	End of record

