#	Name: ASD03330575
#	Creating user name:	WinNT
#	Creation time:	15. 06. 2019 20:37

#	Modifying user name:	WinNT
#	Modification time:	15. 06. 2019 20:37

#	Program:	/corina/corina34_cracker 3.40 0067  02.08.2006

@<TRIPOS>MOLECULE
ASD03330575
  64   66    0    0    0
SMALL
NO_CHARGES


@<TRIPOS>ATOM
   1 C1            -0.3399     1.8690    -0.7688 C.2     
   2 N2            -0.4072     0.5789    -1.1950 N.pl3   
   3 C3             0.9792     2.1968    -0.6914 C.2     
   4 N4             1.6958     1.1200    -1.0839 N.2     
   5 C5             0.8715     0.1460    -1.3935 C.2     
   6 C6             1.2631    -1.1950    -1.8756 C.ar    
   7 C7             1.5276     3.4938    -0.2578 C.2     
   8 O8             0.7768     4.3915     0.0731 O.2     
   9 C9             3.4067     4.9749     0.2032 C.3     
  10 N10            2.8614     3.6853    -0.2279 N.am    
  11 C11            3.5170     4.9975     1.7290 C.3     
  12 C12            4.3936     3.8331     2.1944 C.3     
  13 C13            4.1454     6.3192     2.1754 C.3     
  14 C14            2.1221     4.8629     2.3432 C.3     
  15 C15            4.7729     5.1702    -0.4021 C.2     
  16 N16            5.3124     6.4037    -0.4644 N.am    
  17 O17            5.3870     4.2173    -0.8333 O.2     
  18 C18            6.5948     6.6090    -1.1423 C.3     
  19 C19           -1.6402    -0.1901    -1.3848 C.3     
  20 C20           -2.6468     0.6597    -2.1667 C.3     
  21 C21           -3.4621     1.5128    -1.2004 C.3     
  22 N22           -2.6553     1.9225    -0.0493 N.3     
  23 C23           -1.5180     2.7574    -0.4637 C.3     
  24 C24           -3.4789     2.6139     0.9515 C.3     
  25 C25            2.5252    -2.5869    -3.3839 C.ar    
  26 C26            1.9980    -3.7128    -2.7801 C.ar    
  27 C27            1.1026    -3.5906    -1.7323 C.ar    
  28 C28            0.7317    -2.3399    -1.2761 C.ar    
  29 C29            2.1640    -1.3252    -2.9390 C.ar    
  30 F30           -0.1424    -2.2245    -0.2525 F       
  31 O31            2.6818    -0.2192    -3.5328 O.3     
  32 C32            3.5949    -0.4294    -4.6117 C.3     
  33 H33            2.7458     5.7770    -0.1253 H       
  34 H34            3.4602     2.9694    -0.4919 H       
  35 H35            5.3873     3.9290     1.7568 H       
  36 H36            4.4722     3.8493     3.2814 H       
  37 H37            3.9459     2.8916     1.8764 H       
  38 H38            3.5229     7.1489     1.8404 H       
  39 H39            4.2202     6.3370     3.2627 H       
  40 H40            5.1407     6.4132     1.7411 H       
  41 H41            1.6744     3.9214     2.0252 H       
  42 H42            2.2006     4.8791     3.4302 H       
  43 H43            1.4976     5.6925     2.0117 H       
  44 H44            4.8515     7.1555    -0.0603 H       
  45 H45            7.3636     6.0097    -0.6546 H       
  46 H46            6.5064     6.3073    -2.1859 H       
  47 H47            6.8684     7.6629    -1.0906 H       
  48 H48           -1.4199    -1.0998    -1.9433 H       
  49 H49           -2.0603    -0.4506    -0.4133 H       
  50 H50           -2.1119     1.3085    -2.8603 H       
  51 H51           -3.3158     0.0058    -2.7261 H       
  52 H52           -3.8189     2.4013    -1.7214 H       
  53 H53           -4.3186     0.9368    -0.8500 H       
  54 H54           -1.2576     3.4443     0.3416 H       
  55 H55           -1.7876     3.3242    -1.3548 H       
  56 H56           -4.2676     1.9457     1.2975 H       
  57 H57           -2.8549     2.9072     1.7957 H       
  58 H58           -3.9254     3.5018     0.5039 H       
  59 H59            3.2235    -2.6907    -4.2012 H       
  60 H60            2.2831    -4.6935    -3.1311 H       
  61 H61            0.6953    -4.4758    -1.2665 H       
  62 H62            3.9323     0.5336    -4.9950 H       
  63 H63            4.4530    -0.9996    -4.2557 H       
  64 H64            3.0959    -0.9826    -5.4074 H       
@<TRIPOS>BOND
   1    1    2 1
   2    1    3 2
   3    1   23 1
   4    2   19 1
   5    2    5 1
   6    3    4 1
   7    3    7 1
   8    4    5 2
   9    5    6 1
  10    6   29 ar
  11    6   28 ar
  12    7    8 2
  13    7   10 am
  14    9   10 1
  15    9   11 1
  16    9   15 1
  17    9   33 1
  18   10   34 1
  19   11   12 1
  20   11   13 1
  21   11   14 1
  22   12   35 1
  23   12   36 1
  24   12   37 1
  25   13   38 1
  26   13   39 1
  27   13   40 1
  28   14   41 1
  29   14   42 1
  30   14   43 1
  31   15   16 am
  32   15   17 2
  33   16   18 1
  34   16   44 1
  35   18   45 1
  36   18   46 1
  37   18   47 1
  38   19   20 1
  39   19   48 1
  40   19   49 1
  41   20   21 1
  42   20   50 1
  43   20   51 1
  44   21   22 1
  45   21   52 1
  46   21   53 1
  47   22   23 1
  48   22   24 1
  49   23   54 1
  50   23   55 1
  51   24   56 1
  52   24   57 1
  53   24   58 1
  54   25   26 ar
  55   25   29 ar
  56   25   59 1
  57   26   27 ar
  58   26   60 1
  59   27   28 ar
  60   27   61 1
  61   28   30 1
  62   29   31 1
  63   31   32 1
  64   32   62 1
  65   32   63 1
  66   32   64 1

#	End of record

