#	Name: ASD01913031
#	Creating user name:	WinNT
#	Creation time:	15. 06. 2019 20:00

#	Modifying user name:	WinNT
#	Modification time:	15. 06. 2019 20:00

#	Program:	/corina/corina34_cracker 3.40 0067  02.08.2006

@<TRIPOS>MOLECULE
ASD01913031
  79   84    0    0    0
SMALL
NO_CHARGES


@<TRIPOS>ATOM
   1 C1            -0.0234     1.4424     0.4123 C.ar    
   2 C2            -0.0003    -0.0187     0.1785 C.2     
   3 N3            -1.0869    -0.8248     0.0080 N.pl3   
   4 C4             1.1120    -0.8033     0.0886 C.2     
   5 C5             0.6885    -2.1237    -0.1376 C.2     
   6 N6            -0.6272    -2.1336    -0.1853 N.2     
   7 C7             1.5731    -3.3048    -0.2987 C.ar    
   8 C8             2.9494    -3.1753    -0.1266 C.ar    
   9 C9            -2.4881    -0.3973     0.0246 C.3     
  10 C10           -2.9465    -0.1238    -1.3847 C.2     
  11 N11           -4.2100     0.2849    -1.6150 N.am    
  12 O12           -2.1785    -0.2715    -2.3117 O.2     
  13 C13           -4.6779     0.5573    -2.9825 C.3     
  14 C14           -5.9845    -0.2097    -3.2118 C.3     
  15 N15           -6.9405     0.1292    -2.1491 N.3     
  16 C16           -6.4453    -0.2933    -0.8323 C.3     
  17 C17           -5.1593     0.4644    -0.5060 C.3     
  18 C18           -8.1873    -0.4174    -2.4097 C.ar    
  19 N19           -8.3915    -1.1410    -3.5083 N.ar    
  20 C20            1.0611     2.0710     1.0244 C.ar    
  21 C21            1.0338     3.4337     1.2391 C.ar    
  22 C22           -0.0664     4.1764     0.8492 C.ar    
  23 C23           -1.1450     3.5589     0.2418 C.ar    
  24 C24           -1.1273     2.1977     0.0163 C.ar    
  25 C25            1.0285    -4.5473    -0.6168 C.ar    
  26 C26            1.8543    -5.6426    -0.7652 C.ar    
  27 C27            3.2232    -5.5083    -0.5984 C.ar    
  28 C28            3.7682    -4.2760    -0.2769 C.ar    
  29 F29            4.0283    -6.5833    -0.7446 F       
  30 C30            1.2664    -6.9870    -1.1088 C.3     
  31 C31           -9.5737    -1.6640    -3.7623 C.ar    
  32 N32          -10.5977    -1.4970    -2.9504 N.ar    
  33 C33          -10.4745    -0.7870    -1.8321 C.ar    
  34 C34           -9.2437    -0.2228    -1.5232 C.ar    
  35 O35          -11.5341    -0.6209    -1.0033 O.3     
  36 C36          -12.7635    -1.2380    -1.3904 C.3     
  37 C37          -13.8355    -0.9424    -0.3395 C.3     
  38 N38          -14.1147     0.4996    -0.3169 N.3     
  39 C39          -15.2982     0.7943     0.5040 C.3     
  40 C40          -15.5172     2.3089     0.5487 C.3     
  41 O41          -15.6464     2.8065    -0.7858 O.3     
  42 C42          -14.5112     2.5375    -1.6130 C.3     
  43 C43          -14.2819     1.0252    -1.6797 C.3     
  44 H44            2.1353    -0.4690     0.1753 H       
  45 H45            3.3751    -2.2148     0.1237 H       
  46 H46           -3.1031    -1.1847     0.4604 H       
  47 H47           -2.5840     0.5104     0.6204 H       
  48 H48           -4.8548     1.6261    -3.1029 H       
  49 H49           -3.9273     0.2245    -3.6994 H       
  50 H50           -6.4034     0.0664    -4.1795 H       
  51 H51           -5.7853    -1.2812    -3.1936 H       
  52 H52           -7.1982    -0.0778    -0.0742 H       
  53 H53           -6.2396    -1.3636    -0.8472 H       
  54 H54           -4.7272     0.0729     0.4149 H       
  55 H55           -5.3793     1.5255    -0.3884 H       
  56 H56            1.9203     1.4922     1.3298 H       
  57 H57            1.8728     3.9215     1.7129 H       
  58 H58           -0.0833     5.2426     1.0201 H       
  59 H59           -2.0012     4.1440    -0.0600 H       
  60 H60           -1.9700     1.7167    -0.4580 H       
  61 H61           -0.0384    -4.6529    -0.7467 H       
  62 H62            4.8357    -4.1756    -0.1477 H       
  63 H63            1.2255    -7.0995    -2.1922 H       
  64 H64            1.8891    -7.7748    -0.6849 H       
  65 H65            0.2595    -7.0590    -0.6978 H       
  66 H66           -9.7074    -2.2461    -4.6622 H       
  67 H67           -9.1112     0.3587    -0.6228 H       
  68 H68          -13.0812    -0.8416    -2.3548 H       
  69 H69          -12.6199    -2.3155    -1.4698 H       
  70 H70          -14.7475    -1.4852    -0.5881 H       
  71 H71          -13.4801    -1.2591     0.6411 H       
  72 H72          -16.1732     0.3128     0.0673 H       
  73 H73          -15.1423     0.4191     1.5154 H       
  74 H74          -16.4262     2.5288     1.1087 H       
  75 H75          -14.6656     2.7856     1.0341 H       
  76 H76          -14.6924     2.9227    -2.6164 H       
  77 H77          -13.6303     3.0209    -1.1905 H       
  78 H78          -13.3842     0.8185    -2.2622 H       
  79 H79          -15.1406     0.5474    -2.1513 H       
@<TRIPOS>BOND
   1    1    2 1
   2    1   20 ar
   3    1   24 ar
   4    2    3 1
   5    2    4 2
   6    3    9 1
   7    3    6 1
   8    4    5 1
   9    4   44 1
  10    5    6 2
  11    5    7 1
  12    7    8 ar
  13    7   25 ar
  14    8   28 ar
  15    8   45 1
  16    9   10 1
  17    9   46 1
  18    9   47 1
  19   10   11 am
  20   10   12 2
  21   11   13 1
  22   11   17 1
  23   13   14 1
  24   13   48 1
  25   13   49 1
  26   14   15 1
  27   14   50 1
  28   14   51 1
  29   15   16 1
  30   15   18 1
  31   16   17 1
  32   16   52 1
  33   16   53 1
  34   17   54 1
  35   17   55 1
  36   18   19 ar
  37   18   34 ar
  38   19   31 ar
  39   20   21 ar
  40   20   56 1
  41   21   22 ar
  42   21   57 1
  43   22   23 ar
  44   22   58 1
  45   23   24 ar
  46   23   59 1
  47   24   60 1
  48   25   26 ar
  49   25   61 1
  50   26   27 ar
  51   26   30 1
  52   27   28 ar
  53   27   29 1
  54   28   62 1
  55   30   63 1
  56   30   64 1
  57   30   65 1
  58   31   32 ar
  59   31   66 1
  60   32   33 ar
  61   33   34 ar
  62   33   35 1
  63   34   67 1
  64   35   36 1
  65   36   37 1
  66   36   68 1
  67   36   69 1
  68   37   38 1
  69   37   70 1
  70   37   71 1
  71   38   39 1
  72   38   43 1
  73   39   40 1
  74   39   72 1
  75   39   73 1
  76   40   41 1
  77   40   74 1
  78   40   75 1
  79   41   42 1
  80   42   43 1
  81   42   76 1
  82   42   77 1
  83   43   78 1
  84   43   79 1

#	End of record

