#	Name: ASD01911517
#	Creating user name:	WinNT
#	Creation time:	15. 06. 2019 19:57

#	Modifying user name:	WinNT
#	Modification time:	15. 06. 2019 19:57

#	Program:	/corina/corina34_cracker 3.40 0067  02.08.2006

@<TRIPOS>MOLECULE
ASD01911517
  38   40    0    0    0
SMALL
NO_CHARGES


@<TRIPOS>ATOM
   1 N1            -0.0070     1.4095    -0.0034 N.2     
   2 N2            -0.0070     0.0095    -0.0453 N.pl3   
   3 C3             1.2419     1.8244     0.0384 C.2     
   4 C4             2.0818     0.6982     0.0243 C.2     
   5 C5             1.2900    -0.4113    -0.0275 C.2     
   6 C6             1.7541    -1.8163    -0.0592 C.ar    
   7 C7             1.6863     3.2397     0.0905 C.ar    
   8 C8            -1.1915    -0.8509    -0.0982 C.3     
   9 C9            -1.6292    -1.0157    -1.5308 C.2     
  10 O10           -2.7016    -1.7683    -1.8226 O.3     
  11 O11           -1.0148    -0.4703    -2.4167 O.2     
  12 C12            0.7463     4.2677     0.0989 C.ar    
  13 C13            3.0451     3.5446     0.1368 C.ar    
  14 C14            3.4529     4.8621     0.1851 C.ar    
  15 C15            2.5153     5.8793     0.1880 C.ar    
  16 C16            1.1652     5.5822     0.1474 C.ar    
  17 C17            3.0164    -2.1482     0.4332 C.ar    
  18 C18            0.9288    -2.8150    -0.5762 C.ar    
  19 C19            1.3670    -4.1231    -0.6026 C.ar    
  20 C20            2.6220    -4.4451    -0.1176 C.ar    
  21 C21            3.4431    -3.4599     0.4013 C.ar    
  22 C22            0.1496     6.6955     0.1509 C.3     
  23 H23            3.1615     0.7090     0.0499 H       
  24 H24           -0.9505    -1.8271     0.3226 H       
  25 H25           -1.9972    -0.3958     0.4779 H       
  26 H26           -2.9439    -1.8443    -2.7556 H       
  27 H27           -0.3082     4.0367     0.0673 H       
  28 H28            3.7779     2.7512     0.1353 H       
  29 H29            4.5058     5.0995     0.2210 H       
  30 H30            2.8386     6.9090     0.2262 H       
  31 H31            3.6584    -1.3799     0.8381 H       
  32 H32           -0.0513    -2.5649    -0.9548 H       
  33 H33            0.7289    -4.8973    -1.0023 H       
  34 H34            2.9606    -5.4704    -0.1403 H       
  35 H35            4.4218    -3.7175     0.7784 H       
  36 H36           -0.0702     6.9900    -0.8753 H       
  37 H37           -0.7650     6.3516     0.6339 H       
  38 H38            0.5493     7.5503     0.6965 H       
@<TRIPOS>BOND
   1    1    2 1
   2    1    3 2
   3    2    8 1
   4    2    5 1
   5    3    4 1
   6    3    7 1
   7    4    5 2
   8    4   23 1
   9    5    6 1
  10    6   18 ar
  11    6   17 ar
  12    7   12 ar
  13    7   13 ar
  14    8    9 1
  15    8   24 1
  16    8   25 1
  17    9   10 1
  18    9   11 2
  19   10   26 1
  20   12   16 ar
  21   12   27 1
  22   13   14 ar
  23   13   28 1
  24   14   15 ar
  25   14   29 1
  26   15   16 ar
  27   15   30 1
  28   16   22 1
  29   17   21 ar
  30   17   31 1
  31   18   19 ar
  32   18   32 1
  33   19   20 ar
  34   19   33 1
  35   20   21 ar
  36   20   34 1
  37   21   35 1
  38   22   36 1
  39   22   37 1
  40   22   38 1

#	End of record

