#	Name: ASD05730044
#	Creating user name:	WinNT
#	Creation time:	15. 06. 2019 21:02

#	Modifying user name:	WinNT
#	Modification time:	15. 06. 2019 21:02

#	Program:	/corina/corina34_cracker 3.40 0067  02.08.2006

@<TRIPOS>MOLECULE
ASD05730044
  84   90    0    0    0
SMALL
NO_CHARGES


@<TRIPOS>ATOM
   1 N1             0.0172     1.3973    -0.0160 N.3     
   2 C2             0.0278    -0.0037    -0.0174 C.ar    
   3 C3             0.0936    -0.6984     1.1820 C.ar    
   4 C4             0.1046    -2.0800     1.1809 C.ar    
   5 C5             0.0494    -2.7744    -0.0199 C.ar    
   6 C6            -0.0165    -2.0805    -1.2215 C.ar    
   7 C7            -0.0333    -0.6986    -1.2208 C.ar    
   8 N8             0.0605    -4.1750    -0.0199 N.pl3   
   9 C9            -0.6427    -4.8712    -0.9836 C.ar    
  10 N10           -0.5271    -6.1897    -1.0296 N.ar    
  11 C11           -1.1881    -6.8936    -1.9416 C.ar    
  12 C12           -2.0144    -6.2086    -2.8588 C.ar    
  13 C13           -2.1030    -4.8113    -2.7686 C.ar    
  14 N14           -1.4144    -4.1941    -1.8269 N.ar    
  15 N15           -1.0739    -8.2598    -1.9969 N.am    
  16 C16           -1.7461    -8.9685    -2.9242 C.2     
  17 C17           -2.6114    -8.2890    -3.8907 C.2     
  18 C18           -2.7326    -6.9260    -3.8424 C.2     
  19 C19           -0.2116    -8.9546    -1.0378 C.3     
  20 O20           -1.6335   -10.1809    -2.9593 O.2     
  21 C21           -3.3493    -9.0693    -4.9113 C.ar    
  22 C22           -2.7658    -9.3290    -6.1519 C.ar    
  23 C23           -1.0495    -9.9395    -0.2192 C.3     
  24 C24            0.3206     1.9249     1.3216 C.3     
  25 F25           -0.0974    -0.0229    -2.3889 F       
  26 C26           -1.2688     1.9147    -0.5039 C.3     
  27 C27           -1.2117     3.4430    -0.5621 C.3     
  28 N28           -0.9084     3.9706     0.7755 N.3     
  29 C29            0.3777     3.4532     1.2634 C.3     
  30 C30            0.6531     4.0074     2.6627 C.3     
  31 C31            0.8807    -9.7159    -1.7925 C.3     
  32 C32            1.8008   -10.4128    -0.7853 C.3     
  33 N33            0.9826   -11.2521     0.1007 N.am    
  34 C34           -0.1513   -10.6390     0.8058 C.3     
  35 S35            1.3314   -12.8586     0.3002 S.o2    
  36 O36            0.0873   -13.4457     0.6564 O.2     
  37 O37            1.9970   -13.2245    -0.9007 O.2     
  38 C38            2.4804   -12.9014     1.7033 C.3     
  39 C39           -4.6286    -9.5527    -4.6339 C.ar    
  40 C40           -5.3112   -10.2794    -5.5897 C.ar    
  41 C41           -4.7293   -10.5285    -6.8196 C.ar    
  42 C42           -3.4591   -10.0571    -7.0989 C.ar    
  43 Cl43          -1.1721    -8.7378    -6.5045 Cl      
  44 Cl44          -5.3604    -9.2417    -3.0907 Cl      
  45 S45           -5.6067   -11.4570    -8.0332 S.o     
  46 C46           -6.4862   -10.2159    -8.9224 C.2     
  47 O47           -4.5849   -11.8391    -8.9437 O.2     
  48 C48           -6.0456    -9.5595   -10.0000 C.2     
  49 N49           -6.8932    -8.6750   -10.4856 N.2     
  50 C50           -8.0243    -8.5487    -9.8777 C.2     
  51 S51           -8.1049    -9.6262    -8.5526 S.3     
  52 H52            0.1366    -0.1589     2.1166 H       
  53 H53            0.1565    -2.6200     2.1147 H       
  54 H54           -0.0592    -2.6208    -2.1556 H       
  55 H55            0.5621    -4.6560     0.6568 H       
  56 H56           -2.7246    -4.2529    -3.4529 H       
  57 H57           -3.3658    -6.4067    -4.5466 H       
  58 H58            0.2486    -8.2268    -0.3695 H       
  59 H59           -1.8416    -9.3997     0.2996 H       
  60 H60           -1.4900   -10.6826    -0.8840 H       
  61 H61           -0.4579     1.6164     2.0194 H       
  62 H62            1.2831     1.5375     1.6557 H       
  63 H63           -1.4650     1.5199    -1.5007 H       
  64 H64           -2.0654     1.6061     0.1731 H       
  65 H65           -0.4332     3.7515    -1.2599 H       
  66 H66           -2.1742     3.8304    -0.8962 H       
  67 H67           -0.9160     4.9796     0.7765 H       
  68 H68            1.1742     3.7618     0.5864 H       
  69 H69           -0.1433     3.6977     3.3394 H       
  70 H70            1.6070     3.6235     3.0243 H       
  71 H71            0.6918     5.0959     2.6212 H       
  72 H72            0.4220   -10.4610    -2.4424 H       
  73 H73            1.4623    -9.0168    -2.3935 H       
  74 H74            2.5198   -11.0357    -1.3173 H       
  75 H75            2.3292    -9.6646    -0.1945 H       
  76 H76            0.2179    -9.9092     1.5264 H       
  77 H77           -0.7203   -11.4112     1.3236 H       
  78 H78            1.9957   -12.4779     2.5829 H       
  79 H79            2.7663   -13.9332     1.9074 H       
  80 H80            3.3696   -12.3188     1.4626 H       
  81 H81           -6.3012   -10.6544    -5.3762 H       
  82 H82           -3.0104   -10.2549    -8.0611 H       
  83 H83           -5.0744    -9.7393   -10.4370 H       
  84 H84           -8.8085    -7.8647   -10.1668 H       
@<TRIPOS>BOND
   1    1    2 1
   2    1   26 1
   3    1   24 1
   4    2    3 ar
   5    2    7 ar
   6    3    4 ar
   7    3   52 1
   8    4    5 ar
   9    4   53 1
  10    5    6 ar
  11    5    8 1
  12    6    7 ar
  13    6   54 1
  14    7   25 1
  15    8    9 1
  16    8   55 1
  17    9   10 ar
  18    9   14 ar
  19   10   11 ar
  20   11   12 ar
  21   11   15 1
  22   12   13 ar
  23   12   18 1
  24   13   14 ar
  25   13   56 1
  26   15   16 am
  27   15   19 1
  28   16   17 1
  29   16   20 2
  30   17   18 2
  31   17   21 1
  32   18   57 1
  33   19   31 1
  34   19   23 1
  35   19   58 1
  36   21   22 ar
  37   21   39 ar
  38   22   43 1
  39   22   42 ar
  40   23   34 1
  41   23   59 1
  42   23   60 1
  43   24   29 1
  44   24   61 1
  45   24   62 1
  46   26   27 1
  47   26   63 1
  48   26   64 1
  49   27   28 1
  50   27   65 1
  51   27   66 1
  52   28   29 1
  53   28   67 1
  54   29   30 1
  55   29   68 1
  56   30   69 1
  57   30   70 1
  58   30   71 1
  59   31   32 1
  60   31   72 1
  61   31   73 1
  62   32   33 1
  63   32   74 1
  64   32   75 1
  65   33   34 1
  66   33   35 am
  67   34   76 1
  68   34   77 1
  69   35   36 2
  70   35   37 2
  71   35   38 1
  72   38   78 1
  73   38   79 1
  74   38   80 1
  75   39   40 ar
  76   39   44 1
  77   40   41 ar
  78   40   81 1
  79   41   42 ar
  80   41   45 1
  81   42   82 1
  82   45   46 1
  83   45   47 2
  84   46   48 2
  85   46   51 1
  86   48   49 1
  87   48   83 1
  88   49   50 2
  89   50   51 1
  90   50   84 1

#	End of record

