#	Name: ASD04880758
#	Creating user name:	WinNT
#	Creation time:	15. 06. 2019 20:53

#	Modifying user name:	WinNT
#	Modification time:	15. 06. 2019 20:53

#	Program:	/corina/corina34_cracker 3.40 0067  02.08.2006

@<TRIPOS>MOLECULE
ASD04880758
  66   70    0    0    0
SMALL
NO_CHARGES


@<TRIPOS>ATOM
   1 C1             1.2301    -1.0437     0.2586 C.ar    
   2 C2             0.7235    -1.8298    -0.7604 C.ar    
   3 C3             1.2524    -1.7405    -2.0348 C.ar    
   4 C4             2.2890    -0.8653    -2.2942 C.ar    
   5 C5             2.8001    -0.0745    -1.2732 C.ar    
   6 C6             2.2663    -0.1668     0.0062 C.ar    
   7 N7             3.8487     0.8112    -1.5319 N.3     
   8 C8             5.0445     0.4525    -0.7566 C.3     
   9 C9             6.1913     1.3959    -1.1271 C.3     
  10 N10            5.7881     2.7829    -0.8563 N.3     
  11 C11            4.5923     3.1416    -1.6316 C.3     
  12 C12            3.4455     2.1982    -1.2612 C.3     
  13 C13            6.8335     3.6659    -1.1143 C.ar    
  14 C14            6.7312     4.5762    -2.1600 C.ar    
  15 C15            7.7627     5.4513    -2.4187 C.ar    
  16 C16            8.9162     5.4266    -1.6297 C.ar    
  17 C17            9.0214     4.5127    -0.5774 C.ar    
  18 C18            7.9817     3.6397    -0.3178 C.ar    
  19 N19            8.0812     2.7255     0.7390 N.am    
  20 C20            9.2933     2.3372     1.1823 C.2     
  21 C21            9.4003     1.4752     2.3636 C.2     
  22 O22           10.2991     2.7022     0.6021 O.2     
  23 C23           10.5598     1.0109     2.9158 C.2     
  24 C24           10.1947     0.2292     4.0230 C.2     
  25 C25            8.8456     0.2503     4.0973 C.2     
  26 O26            8.3708     1.0065     3.0989 O.3     
  27 C27           10.0214     6.3635    -1.9076 C.2     
  28 N28           10.3721     6.6332    -3.1807 N.am    
  29 O29           10.6158     6.8923    -0.9881 O.2     
  30 C30            2.8652    -0.7690    -3.6834 C.3     
  31 C31           11.5278     7.4925    -3.4794 C.3     
  32 C32           12.4328     6.7618    -4.4770 C.3     
  33 N33           11.6410     6.3571    -5.6462 N.3     
  34 C34           10.5899     5.4011    -5.2730 C.3     
  35 C35            9.6130     6.0711    -4.3081 C.3     
  36 H36            0.8117    -1.1127     1.2519 H       
  37 H37           -0.0868    -2.5151    -0.5602 H       
  38 H38            0.8547    -2.3559    -2.8282 H       
  39 H39            2.6612     0.4470     0.8023 H       
  40 H40            4.8284     0.5432     0.3079 H       
  41 H41            5.3306    -0.5745    -0.9838 H       
  42 H42            7.0709     1.1502    -0.5321 H       
  43 H43            6.4255     1.2854    -2.1859 H       
  44 H44            4.3062     4.1685    -1.4045 H       
  45 H45            4.8084     3.0509    -2.6961 H       
  46 H46            2.5658     2.4439    -1.8561 H       
  47 H47            3.2113     2.3087    -0.2024 H       
  48 H48            5.8410     4.5969    -2.7712 H       
  49 H49            7.6804     6.1570    -3.2320 H       
  50 H50            9.9115     4.4913     0.0339 H       
  51 H51            7.2777     2.3720     1.1517 H       
  52 H52           11.5632     1.2071     2.5680 H       
  53 H53           10.8658    -0.2915     4.6900 H       
  54 H54            8.2487    -0.2562     4.8413 H       
  55 H55            2.2704    -0.0741    -4.2761 H       
  56 H56            3.8930    -0.4105    -3.6264 H       
  57 H57            2.8490    -1.7528    -4.1524 H       
  58 H58           11.1837     8.4302    -3.9160 H       
  59 H59           12.0813     7.6938    -2.5622 H       
  60 H60           13.2361     7.4268    -4.7941 H       
  61 H61           12.8582     5.8777    -4.0021 H       
  62 H62           11.2493     7.1610    -6.1135 H       
  63 H63           10.0566     5.0793    -6.1675 H       
  64 H64           11.0410     4.5360    -4.7871 H       
  65 H65            8.9012     5.3331    -3.9385 H       
  66 H66            9.0814     6.8695    -4.8259 H       
@<TRIPOS>BOND
   1    1    2 ar
   2    1    6 ar
   3    1   36 1
   4    2    3 ar
   5    2   37 1
   6    3    4 ar
   7    3   38 1
   8    4    5 ar
   9    4   30 1
  10    5    6 ar
  11    5    7 1
  12    6   39 1
  13    7    8 1
  14    7   12 1
  15    8    9 1
  16    8   40 1
  17    8   41 1
  18    9   10 1
  19    9   42 1
  20    9   43 1
  21   10   11 1
  22   10   13 1
  23   11   12 1
  24   11   44 1
  25   11   45 1
  26   12   46 1
  27   12   47 1
  28   13   14 ar
  29   13   18 ar
  30   14   15 ar
  31   14   48 1
  32   15   16 ar
  33   15   49 1
  34   16   17 ar
  35   16   27 1
  36   17   18 ar
  37   17   50 1
  38   18   19 1
  39   19   20 am
  40   19   51 1
  41   20   21 1
  42   20   22 2
  43   21   23 2
  44   21   26 1
  45   23   24 1
  46   23   52 1
  47   24   25 2
  48   24   53 1
  49   25   26 1
  50   25   54 1
  51   27   28 am
  52   27   29 2
  53   28   31 1
  54   28   35 1
  55   30   55 1
  56   30   56 1
  57   30   57 1
  58   31   32 1
  59   31   58 1
  60   31   59 1
  61   32   33 1
  62   32   60 1
  63   32   61 1
  64   33   34 1
  65   33   62 1
  66   34   35 1
  67   34   63 1
  68   34   64 1
  69   35   65 1
  70   35   66 1

#	End of record

