#	Name: ASD08150078
#	Creating user name:	WinNT
#	Creation time:	15. 06. 2019 21:15

#	Modifying user name:	WinNT
#	Modification time:	15. 06. 2019 21:15

#	Program:	/corina/corina34_cracker 3.40 0067  02.08.2006

@<TRIPOS>MOLECULE
ASD08150078
  40   40    0    0    0
SMALL
NO_CHARGES


@<TRIPOS>ATOM
   1 C1            -0.0184     1.5028     0.0103 C.2     
   2 C2             0.0021    -0.0041     0.0020 C.3     
   3 C3             1.4513    -0.4944    -0.0145 C.3     
   4 C4             1.4726    -2.0183    -0.1486 C.3     
   5 C5             0.8462    -2.6487     1.0969 C.3     
   6 O6             1.0197     2.1211     0.0037 O.2     
   7 O7            -1.1898     2.1580     0.0194 O.3     
   8 N8             2.8610    -2.4786    -0.2847 N.3     
   9 C9             2.9217    -3.7688    -0.9844 C.3     
  10 C10            4.3583    -4.2078    -1.1049 C.ar    
  11 C11            4.9292    -4.9816    -0.1114 C.ar    
  12 C12            6.2459    -5.3852    -0.2195 C.ar    
  13 C13            6.9955    -5.0136    -1.3262 C.ar    
  14 C14            6.4204    -4.2371    -2.3216 C.ar    
  15 C15            5.1016    -3.8407    -2.2115 C.ar    
  16 O16            8.2912    -5.4090    -1.4346 O.3     
  17 C17            9.0021    -4.9893    -2.6010 C.3     
  18 O18            2.0966    -0.1142     1.2025 O.3     
  19 C19           -1.1335     3.6089     0.0270 C.3     
  20 H20           -0.4983    -0.3791     0.8948 H       
  21 H21           -0.5153    -0.3696    -0.8850 H       
  22 H22            1.9763    -0.0479    -0.8589 H       
  23 H23            0.9039    -2.3135    -1.0304 H       
  24 H24           -0.1840    -2.3072     1.1979 H       
  25 H25            0.8613    -3.7344     1.0013 H       
  26 H26            1.4149    -2.3536     1.9787 H       
  27 H27            3.4271    -1.7866    -0.7525 H       
  28 H28            2.3600    -4.5142    -0.4214 H       
  29 H29            2.4893    -3.6633    -1.9794 H       
  30 H30            4.3453    -5.2704     0.7501 H       
  31 H31            6.6915    -5.9894     0.5569 H       
  32 H32            7.0019    -3.9465    -3.1841 H       
  33 H33            4.6520    -3.2403    -2.9885 H       
  34 H34            8.5026    -5.3755    -3.4896 H       
  35 H35            9.0240    -3.9003    -2.6409 H       
  36 H36           10.0220    -5.3720    -2.5623 H       
  37 H37            1.6819    -0.4765     1.9974 H       
  38 H38           -0.6102     3.9569    -0.8636 H       
  39 H39           -2.1463     4.0118     0.0340 H       
  40 H40           -0.6017     3.9472     0.9164 H       
@<TRIPOS>BOND
   1    1    2 1
   2    1    6 2
   3    1    7 1
   4    2    3 1
   5    2   20 1
   6    2   21 1
   7    3    4 1
   8    3   18 1
   9    3   22 1
  10    4    5 1
  11    4    8 1
  12    4   23 1
  13    5   24 1
  14    5   25 1
  15    5   26 1
  16    7   19 1
  17    8    9 1
  18    8   27 1
  19    9   10 1
  20    9   28 1
  21    9   29 1
  22   10   11 ar
  23   10   15 ar
  24   11   12 ar
  25   11   30 1
  26   12   13 ar
  27   12   31 1
  28   13   14 ar
  29   13   16 1
  30   14   15 ar
  31   14   32 1
  32   15   33 1
  33   16   17 1
  34   17   34 1
  35   17   35 1
  36   17   36 1
  37   18   37 1
  38   19   38 1
  39   19   39 1
  40   19   40 1

#	End of record

