#	Name: ASD05740230
#	Creating user name:	WinNT
#	Creation time:	15. 06. 2019 21:03

#	Modifying user name:	WinNT
#	Modification time:	15. 06. 2019 21:03

#	Program:	/corina/corina34_cracker 3.40 0067  02.08.2006

@<TRIPOS>MOLECULE
ASD05740230
  65   70    0    0    0
SMALL
NO_CHARGES


@<TRIPOS>ATOM
   1 C1             0.9321    -2.0589    -2.6824 C.3     
   2 N2             0.4452    -1.2086    -1.5872 N.3     
   3 C3            -0.8742    -1.5346    -1.2470 C.ar    
   4 C4            -1.1820    -2.8151    -0.8088 C.ar    
   5 C5            -2.4827    -3.1367    -0.4734 C.ar    
   6 C6            -3.4835    -2.1793    -0.5738 C.ar    
   7 C7            -3.1773    -0.8977    -1.0121 C.ar    
   8 C8            -1.8747    -0.5736    -1.3430 C.ar    
   9 N9            -4.8022    -2.5064    -0.2334 N.pl3   
  10 C10           -5.0497    -3.4011     0.7893 C.ar    
  11 N11           -4.0188    -3.9298     1.4394 N.ar    
  12 N12           -6.3065    -3.6955     1.0883 N.ar    
  13 C13           -6.5812    -4.5507     2.0647 C.ar    
  14 C14           -5.5101    -5.1371     2.7743 C.ar    
  15 C15           -4.2000    -4.7903     2.4252 C.ar    
  16 N16           -7.8711    -4.8749     2.3976 N.am    
  17 C17           -8.1314    -5.7433     3.3910 C.2     
  18 C18           -7.1005    -6.3566     4.1311 C.2     
  19 C19           -5.8001    -6.0799     3.8503 C.2     
  20 C20           -8.9816    -4.2662     1.6611 C.3     
  21 O21           -9.2908    -6.0069     3.6590 O.2     
  22 C22           -9.2266    -5.0404     0.3916 C.ar    
  23 C23           -9.0956    -4.4126    -0.8453 C.ar    
  24 C24            1.3295    -1.3039    -0.4173 C.3     
  25 C25            2.7417    -0.8646    -0.8115 C.3     
  26 N26            3.2286    -1.7149    -1.9067 N.3     
  27 C27            2.3443    -1.6197    -3.0766 C.3     
  28 C28           -9.3236    -5.1341    -2.0151 C.ar    
  29 C29           -9.6780    -6.4665    -1.9446 C.ar    
  30 C30           -9.8072    -7.0866    -0.7156 C.ar    
  31 C31           -9.5764    -6.3763     0.4515 C.ar    
  32 C32           -8.7149    -2.9801    -0.9164 C.ar    
  33 F33           -9.7041    -6.9873     1.6497 F       
  34 C34           -7.6053    -2.5877    -1.6622 C.ar    
  35 C35           -7.2560    -1.2539    -1.7253 C.ar    
  36 C36           -8.0050    -0.3076    -1.0495 C.ar    
  37 C37           -9.1074    -0.6915    -0.3076 C.ar    
  38 C38           -9.4691    -2.0219    -0.2423 C.ar    
  39 F39           -1.5758     0.6731    -1.7691 F       
  40 H40            0.9529    -3.0982    -2.3543 H       
  41 H41            0.2680    -1.9615    -3.5412 H       
  42 H42           -0.4043    -3.5603    -0.7304 H       
  43 H43           -2.7216    -4.1335    -0.1331 H       
  44 H44           -3.9558    -0.1533    -1.0909 H       
  45 H45           -5.5416    -2.1047    -0.7160 H       
  46 H46           -3.3570    -5.2195     2.9463 H       
  47 H47           -7.3447    -7.0493     4.9229 H       
  48 H48           -5.0017    -6.5437     4.4105 H       
  49 H49           -9.8803    -4.2855     2.2776 H       
  50 H50           -8.7320    -3.2342     1.4149 H       
  51 H51            0.9551    -0.6560     0.3753 H       
  52 H52            1.3548    -2.3346    -0.0635 H       
  53 H53            2.7210     0.1746    -1.1396 H       
  54 H54            3.4058    -0.9620     0.0473 H       
  55 H55            4.1788    -1.4802    -2.1517 H       
  56 H56            2.7187    -2.2675    -3.8692 H       
  57 H57            2.3190    -0.5890    -3.4304 H       
  58 H58           -9.2235    -4.6515    -2.9761 H       
  59 H59           -9.8551    -7.0256    -2.8515 H       
  60 H60          -10.0847    -8.1291    -0.6653 H       
  61 H61           -7.0194    -3.3259    -2.1897 H       
  62 H62           -6.3962    -0.9487    -2.3031 H       
  63 H63           -7.7277     0.7350    -1.1010 H       
  64 H64           -9.6887     0.0515     0.2181 H       
  65 H65          -10.3303    -2.3206     0.3370 H       
@<TRIPOS>BOND
   1    1    2 1
   2    1   27 1
   3    1   40 1
   4    1   41 1
   5    2    3 1
   6    2   24 1
   7    3    4 ar
   8    3    8 ar
   9    4    5 ar
  10    4   42 1
  11    5    6 ar
  12    5   43 1
  13    6    7 ar
  14    6    9 1
  15    7    8 ar
  16    7   44 1
  17    8   39 1
  18    9   10 1
  19    9   45 1
  20   10   11 ar
  21   10   12 ar
  22   11   15 ar
  23   12   13 ar
  24   13   14 ar
  25   13   16 1
  26   14   15 ar
  27   14   19 1
  28   15   46 1
  29   16   17 am
  30   16   20 1
  31   17   18 1
  32   17   21 2
  33   18   19 2
  34   18   47 1
  35   19   48 1
  36   20   22 1
  37   20   49 1
  38   20   50 1
  39   22   23 ar
  40   22   31 ar
  41   23   28 ar
  42   23   32 1
  43   24   25 1
  44   24   51 1
  45   24   52 1
  46   25   26 1
  47   25   53 1
  48   25   54 1
  49   26   27 1
  50   26   55 1
  51   27   56 1
  52   27   57 1
  53   28   29 ar
  54   28   58 1
  55   29   30 ar
  56   29   59 1
  57   30   31 ar
  58   30   60 1
  59   31   33 1
  60   32   34 ar
  61   32   38 ar
  62   34   35 ar
  63   34   61 1
  64   35   36 ar
  65   35   62 1
  66   36   37 ar
  67   36   63 1
  68   37   38 ar
  69   37   64 1
  70   38   65 1

#	End of record

