#	Name: ASD01890479
#	Creating user name:	WinNT
#	Creation time:	15. 06. 2019 19:51

#	Modifying user name:	WinNT
#	Modification time:	15. 06. 2019 19:51

#	Program:	/corina/corina34_cracker 3.40 0067  02.08.2006

@<TRIPOS>MOLECULE
ASD01890479
  46   48    0    0    0
SMALL
NO_CHARGES


@<TRIPOS>ATOM
   1 C1             0.9895     0.1803     3.7416 C.2     
   2 C2             0.9510    -1.1828     3.2135 C.2     
   3 C3             2.0167    -1.6805     2.5525 C.2     
   4 C4             1.9770    -3.0852     2.0082 C.3     
   5 C5             1.5435    -3.0517     0.5413 C.3     
   6 O6             1.9822     0.8653     3.5851 O.2     
   7 O7            -0.0782     0.6799     4.3977 O.3     
   8 C8             3.2180    -0.8516     2.3631 C.ar    
   9 C9             3.9756    -0.4492     3.4676 C.ar    
  10 C10            5.1000     0.3270     3.2818 C.ar    
  11 C11            5.4792     0.7082     2.0065 C.ar    
  12 C12            4.7344     0.3144     0.9084 C.ar    
  13 C13            3.6110    -0.4671     1.0772 C.ar    
  14 C14            1.5038    -4.4564    -0.0030 C.ar    
  15 C15            0.3398    -5.1977     0.0841 C.ar    
  16 C16            0.3008    -6.4855    -0.4140 C.ar    
  17 C17            1.4308    -7.0350    -1.0026 C.ar    
  18 C18            2.5975    -6.2888    -1.0891 C.ar    
  19 C19            2.6298    -4.9997    -0.5937 C.ar    
  20 O20            1.3952    -8.3018    -1.4930 O.3     
  21 C21            0.2042    -8.9559    -1.4842 C.ar    
  22 C22           -0.6603    -8.8402    -2.5634 C.ar    
  23 C23           -1.8702    -9.5066    -2.5522 C.ar    
  24 C24           -2.2203   -10.2882    -1.4666 C.ar    
  25 C25           -1.3607   -10.4052    -0.3899 C.ar    
  26 C26           -0.1471    -9.7454    -0.3986 C.ar    
  27 H27            0.0695    -1.7911     3.3525 H       
  28 H28            2.9682    -3.5324     2.0841 H       
  29 H29            1.2660    -3.6779     2.5838 H       
  30 H30            0.5524    -2.6045     0.4655 H       
  31 H31            2.2546    -2.4590    -0.0342 H       
  32 H32            0.0411     1.5875     4.7094 H       
  33 H33            3.6806    -0.7453     4.4634 H       
  34 H34            5.6862     0.6385     4.1337 H       
  35 H35            6.3608     1.3164     1.8674 H       
  36 H36            5.0363     0.6165    -0.0836 H       
  37 H37            3.0333    -0.7773     0.2190 H       
  38 H38           -0.5394    -4.7695     0.5423 H       
  39 H39           -0.6084    -7.0643    -0.3451 H       
  40 H40            3.4784    -6.7142    -1.5467 H       
  41 H41            3.5364    -4.4171    -0.6645 H       
  42 H42           -0.3876    -8.2293    -3.4112 H       
  43 H43           -2.5434    -9.4169    -3.3919 H       
  44 H44           -3.1671   -10.8078    -1.4595 H       
  45 H45           -1.6367   -11.0160     0.4569 H       
  46 H46            0.5257    -9.8404     0.4409 H       
@<TRIPOS>BOND
   1    1    2 1
   2    1    6 2
   3    1    7 1
   4    2    3 2
   5    2   27 1
   6    3    4 1
   7    3    8 1
   8    4    5 1
   9    4   28 1
  10    4   29 1
  11    5   14 1
  12    5   30 1
  13    5   31 1
  14    7   32 1
  15    8    9 ar
  16    8   13 ar
  17    9   10 ar
  18    9   33 1
  19   10   11 ar
  20   10   34 1
  21   11   12 ar
  22   11   35 1
  23   12   13 ar
  24   12   36 1
  25   13   37 1
  26   14   15 ar
  27   14   19 ar
  28   15   16 ar
  29   15   38 1
  30   16   17 ar
  31   16   39 1
  32   17   18 ar
  33   17   20 1
  34   18   19 ar
  35   18   40 1
  36   19   41 1
  37   20   21 1
  38   21   22 ar
  39   21   26 ar
  40   22   23 ar
  41   22   42 1
  42   23   24 ar
  43   23   43 1
  44   24   25 ar
  45   24   44 1
  46   25   26 ar
  47   25   45 1
  48   26   46 1

#	End of record

