#	Name: ASD01440029
#	Creating user name:	WinNT
#	Creation time:	15. 06. 2019 19:20

#	Modifying user name:	WinNT
#	Modification time:	15. 06. 2019 19:20

#	Program:	/corina/corina34_cracker 3.40 0067  02.08.2006

@<TRIPOS>MOLECULE
ASD01440029
  89   94    0    0    0
SMALL
NO_CHARGES


@<TRIPOS>ATOM
   1 N1             2.0582     1.4831    -0.3621 N.ar    
   2 C2             2.0585     0.1671    -0.4934 C.ar    
   3 C3             1.3630    -0.6338     0.4037 C.ar    
   4 C4             0.6672    -0.0366     1.4400 C.ar    
   5 C5             0.6919     1.3476     1.5430 C.ar    
   6 C6             1.4042     2.0813     0.6156 C.ar    
   7 C7             1.3659    -2.1329     0.2498 C.3     
   8 C8             0.6719    -2.7883     1.4249 C.2     
   9 C9             0.5335    -2.5448    -0.9430 C.ar    
  10 N10            2.7371    -2.6319     0.1197 N.am    
  11 C11           -0.4964    -3.3383    -0.4453 C.ar    
  12 C12            0.6354    -2.2804    -2.2857 C.ar    
  13 C13           -0.3066    -2.8131    -3.1725 C.ar    
  14 C14           -1.3428    -3.6104    -2.6790 C.ar    
  15 C15           -1.4360    -3.8684    -1.3312 C.ar    
  16 C16           -0.2099    -2.5430    -4.5755 C.1     
  17 N17           -0.3849    -3.4589     0.9370 N.am    
  18 C18           -2.8061    -3.2815     2.2335 C.ar    
  19 C19           -3.9424    -3.3352     1.4482 C.ar    
  20 C20           -2.7465    -2.4093     3.3043 C.ar    
  21 C21           -3.8233    -1.5908     3.5897 C.ar    
  22 C22           -4.9595    -1.6442     2.8042 C.ar    
  23 C23           -5.0192    -2.5167     1.7337 C.ar    
  24 O24            1.0075    -2.7211     2.5884 O.2     
  25 C25            3.6323    -2.4066     1.1018 C.2     
  26 O26            3.3301    -1.7105     2.0518 O.2     
  27 N27            4.8623    -2.9528     1.0308 N.am    
  28 C28            5.8913    -2.6282     2.0303 C.3     
  29 C29            6.4714    -3.9379     2.5747 C.3     
  30 N30            6.9336    -4.7681     1.4545 N.3     
  31 C31            5.8181    -5.1493     0.5780 C.3     
  32 C32            5.2094    -3.8940    -0.0448 C.3     
  33 C33            7.6513    -5.9545     1.9395 C.3     
  34 C34            8.0081    -6.8566     0.7548 C.3     
  35 C35            8.8082    -8.0598     1.2589 C.3     
  36 N36           10.0297    -7.5921     1.9264 N.3     
  37 C37            9.7115    -6.7626     3.0956 C.3     
  38 C38            8.9384    -5.5206     2.6463 C.3     
  39 C39           10.8904    -8.7221     2.3011 C.3     
  40 O40            2.7443    -0.4061    -1.5141 O.3     
  41 C41            3.3500     0.4735    -2.4635 C.3     
  42 C42            3.9695    -0.3473    -3.5964 C.3     
  43 N43           -0.1331    -2.3288    -5.6885 N.1     
  44 C44           12.2044    -8.1925     2.8789 C.3     
  45 C45           10.1798    -9.5781     3.3514 C.3     
  46 S46           -1.4364    -4.3300     1.8740 S.o2    
  47 O47           -1.9361    -5.3750     1.0509 O.2     
  48 O48           -0.7743    -4.5630     3.1096 O.2     
  49 H49            0.1173    -0.6338     2.1523 H       
  50 H50            0.1591     1.8452     2.3398 H       
  51 H51            1.4269     3.1584     0.6915 H       
  52 H52            3.0008    -3.1244    -0.6732 H       
  53 H53            1.4399    -1.6627    -2.6566 H       
  54 H54           -2.0733    -4.0248    -3.3580 H       
  55 H55           -2.2395    -4.4852    -0.9565 H       
  56 H56           -3.9888    -4.0164     0.6114 H       
  57 H57           -1.8588    -2.3675     3.9180 H       
  58 H58           -3.7770    -0.9098     4.4267 H       
  59 H59           -5.8010    -1.0052     3.0276 H       
  60 H60           -5.9068    -2.5582     1.1197 H       
  61 H61            6.6836    -2.0430     1.5634 H       
  62 H62            5.4437    -2.0593     2.8452 H       
  63 H63            7.3105    -3.7175     3.2346 H       
  64 H64            5.7017    -4.4732     3.1308 H       
  65 H65            6.1835    -5.8075    -0.2103 H       
  66 H66            5.0576    -5.6678     1.1618 H       
  67 H67            4.3124    -4.1607    -0.6038 H       
  68 H68            5.9346    -3.4275    -0.7116 H       
  69 H69            7.0186    -6.5030     2.6373 H       
  70 H70            7.0939    -7.2034     0.2731 H       
  71 H71            8.6076    -6.2955     0.0378 H       
  72 H72            8.2031    -8.6281     1.9653 H       
  73 H73            9.0761    -8.6968     0.4159 H       
  74 H74            9.1022    -7.3369     3.7934 H       
  75 H75           10.6355    -6.4573     3.5866 H       
  76 H76            9.5525    -4.9385     1.9591 H       
  77 H77            8.6888    -4.9129     3.5161 H       
  78 H78           11.0992    -9.3278     1.4194 H       
  79 H79            2.5936     1.1437    -2.8720 H       
  80 H80            4.1270     1.0591    -1.9722 H       
  81 H81            4.5078     0.3161    -4.2733 H       
  82 H82            4.6609    -1.0791    -3.1787 H       
  83 H83            3.1811    -0.8635    -4.1442 H       
  84 H84           11.9956    -7.5867     3.7607 H       
  85 H85           12.8431    -9.0309     3.1570 H       
  86 H86           12.7107    -7.5827     2.1307 H       
  87 H87            9.2436    -9.9554     2.9398 H       
  88 H88           10.8184   -10.4165     3.6295 H       
  89 H89            9.9710    -8.9723     4.2332 H       
@<TRIPOS>BOND
   1    1    2 ar
   2    1    6 ar
   3    2    3 ar
   4    2   40 1
   5    3    4 ar
   6    3    7 1
   7    4    5 ar
   8    4   49 1
   9    5    6 ar
  10    5   50 1
  11    6   51 1
  12    7    8 1
  13    7    9 1
  14    7   10 1
  15    8   17 am
  16    8   24 2
  17    9   11 ar
  18    9   12 ar
  19   10   25 am
  20   10   52 1
  21   11   17 1
  22   11   15 ar
  23   12   13 ar
  24   12   53 1
  25   13   14 ar
  26   13   16 1
  27   14   15 ar
  28   14   54 1
  29   15   55 1
  30   16   43 3
  31   17   46 am
  32   18   19 ar
  33   18   20 ar
  34   18   46 1
  35   19   23 ar
  36   19   56 1
  37   20   21 ar
  38   20   57 1
  39   21   22 ar
  40   21   58 1
  41   22   23 ar
  42   22   59 1
  43   23   60 1
  44   25   26 2
  45   25   27 am
  46   27   28 1
  47   27   32 1
  48   28   29 1
  49   28   61 1
  50   28   62 1
  51   29   30 1
  52   29   63 1
  53   29   64 1
  54   30   31 1
  55   30   33 1
  56   31   32 1
  57   31   65 1
  58   31   66 1
  59   32   67 1
  60   32   68 1
  61   33   34 1
  62   33   38 1
  63   33   69 1
  64   34   35 1
  65   34   70 1
  66   34   71 1
  67   35   36 1
  68   35   72 1
  69   35   73 1
  70   36   37 1
  71   36   39 1
  72   37   38 1
  73   37   74 1
  74   37   75 1
  75   38   76 1
  76   38   77 1
  77   39   44 1
  78   39   45 1
  79   39   78 1
  80   40   41 1
  81   41   42 1
  82   41   79 1
  83   41   80 1
  84   42   81 1
  85   42   82 1
  86   42   83 1
  87   44   84 1
  88   44   85 1
  89   44   86 1
  90   45   87 1
  91   45   88 1
  92   45   89 1
  93   46   47 2
  94   46   48 2

#	End of record

