#	Name: ASD00170033
#	Creating user name:	WinNT
#	Creation time:	15. 06. 2019 18:31

#	Modifying user name:	WinNT
#	Modification time:	15. 06. 2019 18:31

#	Program:	/corina/corina34_cracker 3.40 0067  02.08.2006

@<TRIPOS>MOLECULE
ASD00170033
  36   39    0    0    0
SMALL
NO_CHARGES


@<TRIPOS>ATOM
   1 C1            -0.0177     1.4114    -0.0055 C.ar    
   2 C2             0.0014    -0.0045    -0.0145 C.ar    
   3 C3            -1.2137    -0.7122     0.0041 C.ar    
   4 C4            -2.4031    -0.0486     0.0305 C.ar    
   5 C5            -2.4676     1.3378     0.0403 C.ar    
   6 C6            -1.3066     2.0996     0.0180 C.ar    
   7 C7             1.1898     2.1198    -0.0249 C.ar    
   8 C8             2.3702     1.4384    -0.0522 C.ar    
   9 C9             2.3923     0.0458    -0.0611 C.ar    
  10 C10            1.2366    -0.6740    -0.0428 C.ar    
  11 C11           -1.3729     3.5731     0.0287 C.2     
  12 C12           -2.6686     4.2480    -0.0609 C.2     
  13 O13           -0.3493     4.2283     0.1122 O.2     
  14 C14           -3.5195     4.5131     1.0972 C.2     
  15 C15           -4.6458     5.1367     0.7679 C.2     
  16 S16           -4.7167     5.4278    -0.9698 S.3     
  17 C17           -3.2030     4.6998    -1.2368 C.2     
  18 N18           -2.5990     4.5758    -2.4720 N.pl3   
  19 C19           -3.4722     4.2676     2.6028 C.3     
  20 C20           -4.5259     5.2253     3.1941 C.3     
  21 C21           -5.4965     5.3895     2.0072 C.3     
  22 Br22          -1.1964    -2.6031    -0.0085 Br      
  23 H23           -3.3213    -0.6170     0.0440 H       
  24 H24           -3.4294     1.8286     0.0610 H       
  25 H25            1.1861     3.1997    -0.0187 H       
  26 H26            3.3010     1.9860    -0.0675 H       
  27 H27            3.3404    -0.4709    -0.0828 H       
  28 H28            1.2691    -1.7535    -0.0496 H       
  29 H29           -3.0721     4.8505    -3.2730 H       
  30 H30           -1.7014     4.2140    -2.5388 H       
  31 H31           -3.7323     3.2330     2.8265 H       
  32 H32           -2.4829     4.5039     2.9945 H       
  33 H33           -5.0280     4.7736     4.0496 H       
  34 H34           -4.0767     6.1804     3.4663 H       
  35 H35           -5.9040     6.4002     1.9876 H       
  36 H36           -6.3008     4.6566     2.0709 H       
@<TRIPOS>BOND
   1    1    2 ar
   2    1    7 ar
   3    1    6 ar
   4    2    3 ar
   5    2   10 ar
   6    3    4 ar
   7    3   22 1
   8    4    5 ar
   9    4   23 1
  10    5    6 ar
  11    5   24 1
  12    6   11 1
  13    7    8 ar
  14    7   25 1
  15    8    9 ar
  16    8   26 1
  17    9   10 ar
  18    9   27 1
  19   10   28 1
  20   11   12 1
  21   11   13 2
  22   12   14 1
  23   12   17 2
  24   14   15 2
  25   14   19 1
  26   15   16 1
  27   15   21 1
  28   16   17 1
  29   17   18 1
  30   18   29 1
  31   18   30 1
  32   19   20 1
  33   19   31 1
  34   19   32 1
  35   20   21 1
  36   20   33 1
  37   20   34 1
  38   21   35 1
  39   21   36 1

#	End of record

