#	Name: ASD03330464
#	Creating user name:	WinNT
#	Creation time:	15. 06. 2019 20:37

#	Modifying user name:	WinNT
#	Modification time:	15. 06. 2019 20:37

#	Program:	/corina/corina34_cracker 3.40 0067  02.08.2006

@<TRIPOS>MOLECULE
ASD03330464
  56   58    0    0    0
SMALL
NO_CHARGES


@<TRIPOS>ATOM
   1 C1            -1.6064     1.8307    -2.1444 C.3     
   2 N2            -1.3694     0.4539    -1.6882 N.3     
   3 C3            -0.6011    -0.3132    -2.6853 C.3     
   4 C4             0.6036     0.5044    -3.0735 C.2     
   5 N5             0.7319     1.8359    -2.8050 N.pl3   
   6 C6            -0.2928     2.6226    -2.1130 C.3     
   7 C7             1.7296     0.1165    -3.7222 C.2     
   8 N8             2.5295     1.2008    -3.8412 N.2     
   9 C9             1.9357     2.2363    -3.2912 C.2     
  10 C10            2.4858     3.6076    -3.2143 C.ar    
  11 C11            2.0282    -1.2419    -4.2092 C.2     
  12 O12            1.2243    -2.1389    -4.0404 O.2     
  13 C13            3.4891    -2.8409    -5.3257 C.3     
  14 N14            3.1922    -1.4904    -4.8416 N.am    
  15 C15           -2.6349    -0.2194    -1.3670 C.3     
  16 C16            3.5616     3.9860    -4.0171 C.ar    
  17 C17            4.0984    -3.6669    -4.1910 C.3     
  18 C18            3.0749    -3.8183    -3.0639 C.3     
  19 C19            4.4850    -5.0502    -4.7181 C.3     
  20 C20            5.3445    -2.9581    -3.6566 C.3     
  21 C21            4.4667    -2.7608    -6.4697 C.2     
  22 O22            5.0727    -1.7312    -6.6786 O.2     
  23 N23            4.6676    -3.8333    -7.2608 N.am    
  24 C24            5.6733    -3.7806    -8.3248 C.3     
  25 N25            4.0516     5.2067    -3.9491 N.ar    
  26 C26            3.5530     6.1127    -3.1302 C.ar    
  27 C27            2.4858     5.8157    -2.3015 C.ar    
  28 C28            1.9315     4.5484    -2.3391 C.ar    
  29 H29           -1.9946     1.8131    -3.1628 H       
  30 H30           -2.3338     2.3094    -1.4888 H       
  31 H31           -0.2796    -1.2609    -2.2532 H       
  32 H32           -1.2192    -0.4988    -3.5637 H       
  33 H33           -0.4273     3.5783    -2.6197 H       
  34 H34            0.0095     2.7928    -1.0797 H       
  35 H35            2.5688    -3.3151    -5.6666 H       
  36 H36            3.8333    -0.7751    -4.9762 H       
  37 H37           -3.2940    -0.1873    -2.2346 H       
  38 H38           -2.4365    -1.2573    -1.0996 H       
  39 H39           -3.1132     0.2868    -0.5285 H       
  40 H40            3.9970     3.2718    -4.7003 H       
  41 H41            2.1871    -4.3232    -3.4447 H       
  42 H42            3.5090    -4.4068    -2.2556 H       
  43 H43            2.7994    -2.8328    -2.6885 H       
  44 H44            5.1510    -4.9399    -5.5739 H       
  45 H45            4.9928    -5.6095    -3.9323 H       
  46 H46            3.5867    -5.5868    -5.0235 H       
  47 H47            5.0691    -1.9726    -3.2811 H       
  48 H48            5.7786    -3.5466    -2.8482 H       
  49 H49            6.0737    -2.8503    -4.4596 H       
  50 H50            4.1462    -4.6400    -7.1257 H       
  51 H51            5.6923    -4.7332    -8.8542 H       
  52 H52            5.4223    -2.9819    -9.0227 H       
  53 H53            6.6535    -3.5876    -7.8889 H       
  54 H54            3.9851     7.1022    -3.1061 H       
  55 H55            2.0871     6.5662    -1.6350 H       
  56 H56            1.0977     4.2896    -1.7033 H       
@<TRIPOS>BOND
   1    1    2 1
   2    1    6 1
   3    1   29 1
   4    1   30 1
   5    2    3 1
   6    2   15 1
   7    3    4 1
   8    3   31 1
   9    3   32 1
  10    4    5 1
  11    4    7 2
  12    5    6 1
  13    5    9 1
  14    6   33 1
  15    6   34 1
  16    7    8 1
  17    7   11 1
  18    8    9 2
  19    9   10 1
  20   10   16 ar
  21   10   28 ar
  22   11   12 2
  23   11   14 am
  24   13   14 1
  25   13   17 1
  26   13   21 1
  27   13   35 1
  28   14   36 1
  29   15   37 1
  30   15   38 1
  31   15   39 1
  32   16   25 ar
  33   16   40 1
  34   17   18 1
  35   17   19 1
  36   17   20 1
  37   18   41 1
  38   18   42 1
  39   18   43 1
  40   19   44 1
  41   19   45 1
  42   19   46 1
  43   20   47 1
  44   20   48 1
  45   20   49 1
  46   21   22 2
  47   21   23 am
  48   23   24 1
  49   23   50 1
  50   24   51 1
  51   24   52 1
  52   24   53 1
  53   25   26 ar
  54   26   27 ar
  55   26   54 1
  56   27   28 ar
  57   27   55 1
  58   28   56 1

#	End of record

