#	Name: ASD05300002
#	Creating user name:	WinNT
#	Creation time:	15. 06. 2019 20:58

#	Modifying user name:	WinNT
#	Modification time:	15. 06. 2019 20:58

#	Program:	/corina/corina34_cracker 3.40 0067  02.08.2006

@<TRIPOS>MOLECULE
ASD05300002
  43   46    0    0    0
SMALL
NO_CHARGES


@<TRIPOS>ATOM
   1 O1            -1.8998     3.0204    -1.7357 O.co2   
   2 C2            -1.0169     2.7856    -0.9225 C.2     
   3 O3             0.0390     3.4010    -0.9715 O.co2   
   4 N4            -1.2095     1.8526     0.0308 N.am    
   5 N5            -2.3908     1.1692     0.0890 N.3     
   6 C6            -2.5814     0.4054    -1.0569 C.2     
   7 C7            -1.7319     0.6058    -2.1503 C.2     
   8 C8            -1.9009    -0.1358    -3.3170 C.2     
   9 C9            -2.9233    -1.0807    -3.3975 C.2     
  10 C10           -3.7683    -1.2824    -2.3089 C.2     
  11 C11           -3.5952    -0.5428    -1.1343 C.2     
  12 C12           -4.4865    -0.7968     0.0016 C.2     
  13 C13           -4.9691     0.1060     0.7896 C.2     
  14 C14           -4.7111     1.5460     0.6856 C.2     
  15 C15           -3.4509     2.0286     0.3536 C.2     
  16 C16           -3.2327     3.4090     0.2814 C.2     
  17 C17           -4.2744     4.2993     0.5298 C.2     
  18 C18           -5.5416     3.8141     0.8513 C.2     
  19 C19           -5.7586     2.4405     0.9283 C.2     
  20 C20           -0.1519     1.5714     1.0048 C.3     
  21 C21            0.7710     0.5153     0.4533 C.ar    
  22 C22            1.8321     0.8783    -0.3548 C.ar    
  23 C23            2.6786    -0.0905    -0.8607 C.ar    
  24 C24            2.4642    -1.4221    -0.5580 C.ar    
  25 C25            1.4036    -1.7850     0.2509 C.ar    
  26 C26            0.5597    -0.8159     0.7603 C.ar    
  27 H27           -0.9415     1.3393    -2.0895 H       
  28 H28           -1.2416     0.0209    -4.1579 H       
  29 H29           -3.0598    -1.6546    -4.3022 H       
  30 H30           -4.5611    -2.0131    -2.3721 H       
  31 H31           -4.7627    -1.8227     0.1952 H       
  32 H32           -5.6147    -0.2263     1.5891 H       
  33 H33           -2.2516     3.7857     0.0323 H       
  34 H34           -4.1010     5.3638     0.4738 H       
  35 H35           -6.3526     4.5017     1.0404 H       
  36 H36           -6.7400     2.0643     1.1768 H       
  37 H37            0.4139     2.4824     1.2000 H       
  38 H38           -0.5983     1.2150     1.9331 H       
  39 H39            1.9996     1.9187    -0.5913 H       
  40 H40            3.5072     0.1931    -1.4927 H       
  41 H41            3.1251    -2.1790    -0.9539 H       
  42 H42            1.2359    -2.8254     0.4871 H       
  43 H43           -0.2689    -1.0994     1.3923 H       
@<TRIPOS>BOND
   1    1    2 ar
   2    2    3 ar
   3    2    4 am
   4    4    5 1
   5    4   20 1
   6    5    6 1
   7    5   15 1
   8    6    7 2
   9    6   11 1
  10    7    8 1
  11    7   27 1
  12    8    9 2
  13    8   28 1
  14    9   10 1
  15    9   29 1
  16   10   11 2
  17   10   30 1
  18   11   12 1
  19   12   13 2
  20   12   31 1
  21   13   14 1
  22   13   32 1
  23   14   15 2
  24   14   19 1
  25   15   16 1
  26   16   17 2
  27   16   33 1
  28   17   18 1
  29   17   34 1
  30   18   19 2
  31   18   35 1
  32   19   36 1
  33   20   21 1
  34   20   37 1
  35   20   38 1
  36   21   22 ar
  37   21   26 ar
  38   22   23 ar
  39   22   39 1
  40   23   24 ar
  41   23   40 1
  42   24   25 ar
  43   24   41 1
  44   25   26 ar
  45   25   42 1
  46   26   43 1

#	End of record

