#	Name: ASD03330744
#	Creating user name:	WinNT
#	Creation time:	15. 06. 2019 20:37

#	Modifying user name:	WinNT
#	Modification time:	15. 06. 2019 20:37

#	Program:	/corina/corina34_cracker 3.40 0067  02.08.2006

@<TRIPOS>MOLECULE
ASD03330744
  63   65    0    0    0
SMALL
NO_CHARGES


@<TRIPOS>ATOM
   1 C1            -0.0159     1.3546     0.0394 C.2     
   2 N2             0.0042    -0.0047     0.0504 N.pl3   
   3 C3             1.2781     1.7736    -0.0303 C.2     
   4 N4             2.0647     0.6762    -0.0781 N.2     
   5 C5             1.3083    -0.3957    -0.0360 C.2     
   6 C6             1.7895    -1.7937    -0.0755 C.ar    
   7 C7             1.7379     3.1734    -0.0504 C.2     
   8 O8             0.9287     4.0801    -0.0026 O.2     
   9 C9             3.5125     4.8407    -0.1419 C.3     
  10 N10            3.0553     3.4490    -0.1219 N.am    
  11 C11            4.8781     4.9190    -0.8273 C.3     
  12 C12            3.6295     5.3513     1.2711 C.2     
  13 O13            3.3578     4.6244     2.2031 O.2     
  14 C14           -1.1733    -0.8712     0.1523 C.3     
  15 C15           -2.2421    -0.3839    -0.8310 C.3     
  16 C16           -3.1086     0.6803    -0.1653 C.3     
  17 N17           -2.3244     1.4886     0.7705 N.3     
  18 C18           -1.2509     2.2169     0.0781 C.3     
  19 C19            2.7352    -2.1839    -1.0276 C.ar    
  20 C20            1.3058    -2.7274     0.8409 C.ar    
  21 C21            1.7584    -4.0301     0.7989 C.ar    
  22 C22            2.6908    -4.4126    -0.1489 C.ar    
  23 C23            3.1798    -3.4923    -1.0581 C.ar    
  24 C24           -3.1873     2.4109     1.5207 C.3     
  25 N25            4.0362     6.6159     1.4991 N.am    
  26 C26            4.1500     7.1123     2.8727 C.3     
  27 C27            4.7348     4.5189    -2.2971 C.3     
  28 C28            3.8590     5.5432    -3.0215 C.3     
  29 C29            6.1172     4.4765    -2.9513 C.3     
  30 F30            3.2131    -1.2851    -1.9159 F       
  31 C31            3.1805    -5.8374    -0.1870 C.3     
  32 F32            2.3577    -6.5909    -1.0310 F       
  33 F33            4.4937    -5.8664    -0.6684 F       
  34 F34            3.1447    -6.3774     1.1031 F       
  35 H35            2.7950     5.4509    -0.6906 H       
  36 H36            3.7007     2.7259    -0.1601 H       
  37 H37            5.2586     5.9385    -0.7638 H       
  38 H38            5.5727     4.2405    -0.3321 H       
  39 H39           -0.8937    -1.8960    -0.0919 H       
  40 H40           -1.5676    -0.8321     1.1678 H       
  41 H41           -1.7586     0.0406    -1.7108 H       
  42 H42           -2.8676    -1.2242    -1.1322 H       
  43 H43           -3.5301     1.3297    -0.9326 H       
  44 H44           -3.9203     0.1937     0.3756 H       
  45 H45           -1.0335     3.1412     0.6133 H       
  46 H46           -1.5654     2.4490    -0.9394 H       
  47 H47            0.5784    -2.4310     1.5823 H       
  48 H48            1.3841    -4.7533     1.5084 H       
  49 H49            3.9075    -3.7973    -1.7955 H       
  50 H50           -3.9252     1.8404     2.0848 H       
  51 H51           -2.5795     2.9990     2.2083 H       
  52 H52           -3.6976     3.0776     0.8255 H       
  53 H53            4.2535     7.1973     0.7537 H       
  54 H54            3.1771     7.0565     3.3610 H       
  55 H55            4.8674     6.5021     3.4213 H       
  56 H56            4.4901     8.1478     2.8578 H       
  57 H57            4.2717     3.5343    -2.3621 H       
  58 H58            2.8741     5.5734    -2.5554 H       
  59 H59            4.3221     6.5278    -2.9565 H       
  60 H60            3.7569     5.2581    -4.0686 H       
  61 H61            6.7412     3.7468    -2.4352 H       
  62 H62            6.0151     4.1914    -3.9984 H       
  63 H63            6.5803     5.4611    -2.8863 H       
@<TRIPOS>BOND
   1    1    2 1
   2    1    3 2
   3    1   18 1
   4    2   14 1
   5    2    5 1
   6    3    4 1
   7    3    7 1
   8    4    5 2
   9    5    6 1
  10    6   20 ar
  11    6   19 ar
  12    7    8 2
  13    7   10 am
  14    9   10 1
  15    9   11 1
  16    9   12 1
  17    9   35 1
  18   10   36 1
  19   11   27 1
  20   11   37 1
  21   11   38 1
  22   12   13 2
  23   12   25 am
  24   14   15 1
  25   14   39 1
  26   14   40 1
  27   15   16 1
  28   15   41 1
  29   15   42 1
  30   16   17 1
  31   16   43 1
  32   16   44 1
  33   17   18 1
  34   17   24 1
  35   18   45 1
  36   18   46 1
  37   19   30 1
  38   19   23 ar
  39   20   21 ar
  40   20   47 1
  41   21   22 ar
  42   21   48 1
  43   22   23 ar
  44   22   31 1
  45   23   49 1
  46   24   50 1
  47   24   51 1
  48   24   52 1
  49   25   26 1
  50   25   53 1
  51   26   54 1
  52   26   55 1
  53   26   56 1
  54   27   28 1
  55   27   29 1
  56   27   57 1
  57   28   58 1
  58   28   59 1
  59   28   60 1
  60   29   61 1
  61   29   62 1
  62   29   63 1
  63   31   32 1
  64   31   33 1
  65   31   34 1

#	End of record

