#	Name: ASD04880321
#	Creating user name:	WinNT
#	Creation time:	15. 06. 2019 20:53

#	Modifying user name:	WinNT
#	Modification time:	15. 06. 2019 20:53

#	Program:	/corina/corina34_cracker 3.40 0067  02.08.2006

@<TRIPOS>MOLECULE
ASD04880321
  52   54    0    0    0
SMALL
NO_CHARGES


@<TRIPOS>ATOM
   1 C1            -0.0168     1.3889     0.0097 C.ar    
   2 C2             0.0021    -0.0041     0.0020 C.ar    
   3 C3            -1.1855    -0.7116     0.0091 C.ar    
   4 C4            -2.4029    -0.0264     0.0244 C.ar    
   5 C5            -2.4142     1.3706     0.0325 C.ar    
   6 C6            -1.2254     2.0695     0.0306 C.ar    
   7 C7            -3.6727    -0.7758     0.0315 C.2     
   8 O8             1.1521     2.0829     0.0022 O.3     
   9 C9             1.0600     3.5089     0.0108 C.3     
  10 O10            1.1889    -0.6679    -0.0129 O.3     
  11 C11            1.1336    -2.0958    -0.0200 C.3     
  12 N12           -3.7781    -2.0595     0.0252 N.2     
  13 N13           -5.0921    -2.5230     0.0343 N.am    
  14 C14           -6.0039    -1.3680     0.0490 C.3     
  15 C15           -5.0516    -0.1558     0.0539 C.3     
  16 C16           -5.4668    -3.8176     0.0303 C.2     
  17 N17           -4.5330    -4.7894     0.0170 N.am    
  18 O18           -6.6474    -4.1089     0.0388 O.2     
  19 C19           -4.9403    -6.1966     0.0126 C.3     
  20 C20           -3.7152    -7.0741    -0.0027 C.ar    
  21 C21           -5.2527     0.6795     1.3199 C.3     
  22 C22           -5.2665     0.7006    -1.1956 C.3     
  23 C23           -3.1436    -7.4828     1.1870 C.ar    
  24 C24           -2.0178    -8.2892     1.1726 C.ar    
  25 C25           -1.4665    -8.6848    -0.0340 C.ar    
  26 C26           -2.0400    -8.2746    -1.2228 C.ar    
  27 C27           -3.1670    -7.4745    -1.2072 C.ar    
  28 F28           -1.4578    -8.6891     2.3353 F       
  29 H29           -1.1722    -1.7915     0.0025 H       
  30 H30           -3.3538     1.9030     0.0440 H       
  31 H31           -1.2354     3.1495     0.0369 H       
  32 H32            2.0621     3.9377     0.0035 H       
  33 H33            0.5154     3.8431    -0.8723 H       
  34 H34            0.5324     3.8335     0.9076 H       
  35 H35            0.5976    -2.4342    -0.9068 H       
  36 H36            2.1464    -2.4986    -0.0319 H       
  37 H37            0.6146    -2.4437     0.8731 H       
  38 H38           -6.6319    -1.3637    -0.8419 H       
  39 H39           -6.6159    -1.3739     0.9510 H       
  40 H40           -3.5913    -4.5570     0.0102 H       
  41 H41           -5.5273    -6.4077     0.9065 H       
  42 H42           -5.5425    -6.3979    -0.8734 H       
  43 H43           -5.0480     0.0653     2.1968 H       
  44 H44           -4.5719     1.5307     1.3055 H       
  45 H45           -6.2814     1.0377     1.3593 H       
  46 H46           -6.2956     1.0593    -1.2176 H       
  47 H47           -4.5855     1.5515    -1.1744 H       
  48 H48           -5.0715     0.1012    -2.0848 H       
  49 H49           -3.5744    -7.1733     2.1278 H       
  50 H50           -0.5883    -9.3133    -0.0464 H       
  51 H51           -1.6100    -8.5831    -2.1643 H       
  52 H52           -3.6147    -7.1548    -2.1366 H       
@<TRIPOS>BOND
   1    1    2 ar
   2    1    8 1
   3    1    6 ar
   4    2    3 ar
   5    2   10 1
   6    3    4 ar
   7    3   29 1
   8    4    5 ar
   9    4    7 1
  10    5    6 ar
  11    5   30 1
  12    6   31 1
  13    7   12 2
  14    7   15 1
  15    8    9 1
  16    9   32 1
  17    9   33 1
  18    9   34 1
  19   10   11 1
  20   11   35 1
  21   11   36 1
  22   11   37 1
  23   12   13 1
  24   13   14 1
  25   13   16 am
  26   14   15 1
  27   14   38 1
  28   14   39 1
  29   15   21 1
  30   15   22 1
  31   16   17 am
  32   16   18 2
  33   17   19 1
  34   17   40 1
  35   19   20 1
  36   19   41 1
  37   19   42 1
  38   20   23 ar
  39   20   27 ar
  40   21   43 1
  41   21   44 1
  42   21   45 1
  43   22   46 1
  44   22   47 1
  45   22   48 1
  46   23   24 ar
  47   23   49 1
  48   24   25 ar
  49   24   28 1
  50   25   26 ar
  51   25   50 1
  52   26   27 ar
  53   26   51 1
  54   27   52 1

#	End of record

