#	Name: ASD01918111
#	Creating user name:	WinNT
#	Creation time:	15. 06. 2019 20:10

#	Modifying user name:	WinNT
#	Modification time:	15. 06. 2019 20:10

#	Program:	/corina/corina34_cracker 3.40 0067  02.08.2006

@<TRIPOS>MOLECULE
ASD01918111
  37   39    0    0    0
SMALL
NO_CHARGES


@<TRIPOS>ATOM
   1 N1            -0.0169     1.3955     0.0085 N.am    
   2 C2             0.0023    -0.0040     0.0051 C.2     
   3 C3             2.4248    -0.1102    -0.5670 C.3     
   4 C4             2.2005     1.3388    -1.0141 C.3     
   5 C5             1.3003     2.0622    -0.0062 C.3     
   6 C6            -0.9996    -0.8779     0.2410 C.2     
   7 C7            -0.4724    -2.1700     0.1203 C.2     
   8 N8             0.8009    -2.0712    -0.1779 N.2     
   9 N9             1.1278    -0.7182    -0.2583 N.pl3   
  10 C10           -1.2379    -3.4552     0.3027 C.3     
  11 O11           -2.5989    -3.1579     0.6211 O.3     
  12 C12           -1.1698     2.0934     0.0191 C.2     
  13 O13           -2.2310     1.5127    -0.0695 O.2     
  14 C14           -3.4316    -4.2143     0.8186 C.ar    
  15 C15           -4.7680    -3.9982     1.1315 C.ar    
  16 C16           -5.6122    -5.0751     1.3313 C.ar    
  17 C17           -5.1265    -6.3653     1.2198 C.ar    
  18 C18           -3.7973    -6.5817     0.9087 C.ar    
  19 C19           -2.9502    -5.5090     0.7027 C.ar    
  20 C20           -1.1405     3.5952     0.1408 C.3     
  21 F21           -5.2420    -2.7378     1.2407 F       
  22 H22            2.9082    -0.6689    -1.3685 H       
  23 H23            3.0554    -0.1244     0.3219 H       
  24 H24            3.1604     1.8515    -1.0754 H       
  25 H25            1.7246     1.3455    -1.9947 H       
  26 H26            1.1802     3.1038    -0.3041 H       
  27 H27            1.7476     2.0115     0.9865 H       
  28 H28           -2.0224    -0.6262     0.4800 H       
  29 H29           -1.1989    -4.0353    -0.6193 H       
  30 H30           -0.7926    -4.0314     1.1137 H       
  31 H31           -6.6511    -4.9087     1.5748 H       
  32 H32           -5.7871    -7.2052     1.3765 H       
  33 H33           -3.4210    -7.5903     0.8227 H       
  34 H34           -1.9119    -5.6796     0.4594 H       
  35 H35           -1.0026     4.0371    -0.8460 H       
  36 H36           -2.0814     3.9436     0.5667 H       
  37 H37           -0.3162     3.8910     0.7898 H       
@<TRIPOS>BOND
   1    1    2 1
   2    1    5 1
   3    1   12 am
   4    2    6 2
   5    2    9 1
   6    3    4 1
   7    3    9 1
   8    3   22 1
   9    3   23 1
  10    4    5 1
  11    4   24 1
  12    4   25 1
  13    5   26 1
  14    5   27 1
  15    6    7 1
  16    6   28 1
  17    7    8 2
  18    7   10 1
  19    8    9 1
  20   10   11 1
  21   10   29 1
  22   10   30 1
  23   11   14 1
  24   12   13 2
  25   12   20 1
  26   14   15 ar
  27   14   19 ar
  28   15   16 ar
  29   15   21 1
  30   16   17 ar
  31   16   31 1
  32   17   18 ar
  33   17   32 1
  34   18   19 ar
  35   18   33 1
  36   19   34 1
  37   20   35 1
  38   20   36 1
  39   20   37 1

#	End of record

