#	Name: ASD01885177
#	Creating user name:	WinNT
#	Creation time:	15. 06. 2019 19:49

#	Modifying user name:	WinNT
#	Modification time:	15. 06. 2019 19:49

#	Program:	/corina/corina34_cracker 3.40 0067  02.08.2006

@<TRIPOS>MOLECULE
ASD01885177
  50   52    0    0    0
SMALL
NO_CHARGES


@<TRIPOS>ATOM
   1 C1             1.6248     1.4734    -1.0516 C.2     
   2 C2             1.6473     0.0685    -1.0963 C.2     
   3 C3             1.2731    -0.6401     0.0138 C.2     
   4 C4             0.8730     0.0498     1.1784 C.2     
   5 C5             0.8589     1.3971     1.1991 C.2     
   6 N6             1.2300     2.1130     0.0982 N.pl3   
   7 C7             1.3146     3.4475    -0.1707 C.2     
   8 N8             1.7333     3.5743    -1.4024 N.2     
   9 N9             1.9250     2.4170    -1.9312 N.2     
  10 C10            0.9850     4.5705     0.7785 C.3     
  11 Cl11           2.1428    -0.7574    -2.5407 Cl      
  12 N12            1.2867    -2.0327    -0.0061 N.pl3   
  13 C13            0.0424    -2.8020     0.1459 C.3     
  14 C14            0.2479    -3.8474     1.2474 C.3     
  15 N15            1.4402    -4.6489     0.9410 N.3     
  16 C16            2.6527    -3.8195     0.9345 C.3     
  17 C17            2.5449    -2.7729    -0.1859 C.3     
  18 C18            1.5687    -5.7161     1.8328 C.ar    
  19 C19            1.7512    -5.4720     3.1878 C.ar    
  20 C20            1.8782    -6.5306     4.0693 C.ar    
  21 C21            1.8239    -7.8328     3.6015 C.ar    
  22 C22            1.6424    -8.0785     2.2508 C.ar    
  23 C23            1.5083    -7.0230     1.3666 C.ar    
  24 C24            3.8757    -4.7050     0.6876 C.3     
  25 F25            2.0558    -6.2937     5.3874 F       
  26 F26            1.5903    -9.3500     1.7970 F       
  27 C27            2.2388     4.9579     1.5652 C.3     
  28 F28            3.2361     5.3753     0.6773 F       
  29 F29            1.9329     6.0005     2.4465 F       
  30 F30            2.6940     3.8520     2.2912 F       
  31 H31            0.5765    -0.5045     2.0566 H       
  32 H32            0.5507     1.9151     2.0952 H       
  33 H33            0.6304     5.4321     0.2129 H       
  34 H34            0.2080     4.2453     1.4704 H       
  35 H35           -0.7708    -2.1318     0.4244 H       
  36 H36           -0.1964    -3.3016    -0.7930 H       
  37 H37            0.3837    -3.3448     2.2051 H       
  38 H38           -0.6248    -4.4985     1.2984 H       
  39 H39            2.7550    -3.3173     1.8965 H       
  40 H40            2.5476    -3.2722    -1.1548 H       
  41 H41            3.3860    -2.0825    -0.1242 H       
  42 H42            1.7943    -4.4565     3.5529 H       
  43 H43            1.9236    -8.6581     4.2910 H       
  44 H44            1.3664    -7.2151     0.3134 H       
  45 H45            3.7292    -5.2801    -0.2267 H       
  46 H46            4.7625    -4.0795     0.5852 H       
  47 H47            4.0067    -5.3863     1.5283 H       
  48 S48            9.7625    12.3453    10.3982 S.3     
  49 H49            9.7807    11.0005    10.3908 H       
  50 H50           11.0687    12.6657    10.3874 H       
@<TRIPOS>BOND
   1    1    2 1
   2    1    6 1
   3    1    9 2
   4    2    3 2
   5    2   11 1
   6    3    4 1
   7    3   12 1
   8    4    5 2
   9    4   31 1
  10    5    6 1
  11    5   32 1
  12    6    7 1
  13    7    8 2
  14    7   10 1
  15    8    9 1
  16   10   27 1
  17   10   33 1
  18   10   34 1
  19   12   13 1
  20   12   17 1
  21   13   14 1
  22   13   35 1
  23   13   36 1
  24   14   15 1
  25   14   37 1
  26   14   38 1
  27   15   16 1
  28   15   18 1
  29   16   17 1
  30   16   24 1
  31   16   39 1
  32   17   40 1
  33   17   41 1
  34   18   19 ar
  35   18   23 ar
  36   19   20 ar
  37   19   42 1
  38   20   21 ar
  39   20   25 1
  40   21   22 ar
  41   21   43 1
  42   22   23 ar
  43   22   26 1
  44   23   44 1
  45   24   45 1
  46   24   46 1
  47   24   47 1
  48   27   28 1
  49   27   29 1
  50   27   30 1
  51   48   49 1
  52   48   50 1

#	End of record

