#	Name: ASD01816256
#	Creating user name:	WinNT
#	Creation time:	15. 06. 2019 19:34

#	Modifying user name:	WinNT
#	Modification time:	15. 06. 2019 19:34

#	Program:	/corina/corina34_cracker 3.40 0067  02.08.2006

@<TRIPOS>MOLECULE
ASD01816256
  59   64    0    0    0
SMALL
NO_CHARGES


@<TRIPOS>ATOM
   1 C1            -0.0167     1.3813     0.0096 C.ar    
   2 C2             0.0021    -0.0041     0.0020 C.ar    
   3 C3             1.1984    -0.6909    -0.0131 C.ar    
   4 C4             2.4015     0.0059    -0.0203 C.ar    
   5 C5             2.3790     1.4106    -0.0126 C.ar    
   6 C6             1.1663     2.0916     0.0022 C.ar    
   7 N7             3.6053    -0.6772    -0.0345 N.pl3   
   8 C8             4.7970    -0.0586    -0.0420 C.2     
   9 C9             4.9000     1.3103    -0.0361 C.2     
  10 C10            3.6670     2.1301    -0.0205 C.2     
  11 C11            5.9971     2.2729    -0.0415 C.2     
  12 N12            5.4246     3.4960    -0.0304 N.am    
  13 N13            4.0323     3.3799    -0.0179 N.2     
  14 C14            6.1265     4.7082    -0.0309 C.ar    
  15 C15            5.8873     5.6525     0.9617 C.ar    
  16 C16            7.0667     4.9675    -1.0190 C.ar    
  17 C17            7.7574     6.1637    -1.0169 C.ar    
  18 C18            7.5143     7.1036    -0.0320 C.ar    
  19 C19            6.5827     6.8481     0.9573 C.ar    
  20 F20            4.9771     5.4027     1.9283 F       
  21 O21            7.1914     2.0229    -0.0529 O.2     
  22 C22            3.5779    -2.1419    -0.0411 C.3     
  23 C23            3.5555    -2.6375    -1.4641 C.ar    
  24 C24            4.7449    -2.8864    -2.1255 C.ar    
  25 C25            4.7314    -3.3403    -3.4283 C.ar    
  26 C26            3.5144    -3.5482    -4.0788 C.ar    
  27 C27            2.3183    -3.2952    -3.4061 C.ar    
  28 C28            2.3456    -2.8470    -2.1015 C.ar    
  29 C29            3.4925    -4.0340    -5.4753 C.2     
  30 N30            2.4157    -4.2639    -6.1829 N.2     
  31 C31            2.7950    -4.6971    -7.4130 C.2     
  32 C32            4.1578    -4.7232    -7.4299 C.2     
  33 O33            4.5759    -4.3052    -6.2246 O.3     
  34 C34            1.9002    -5.0701    -8.5223 C.2     
  35 O35            2.3671    -5.4450    -9.5798 O.2     
  36 O36            0.5638    -4.9956    -8.3642 O.3     
  37 C37           -1.7347    -5.2299    -9.1337 C.3     
  38 C38           -0.2565    -5.3787    -9.4994 C.3     
  39 H39           -0.9602     1.9068     0.0169 H       
  40 H40           -0.9289    -0.5516     0.0083 H       
  41 H41            1.2004    -1.7709    -0.0189 H       
  42 H42            1.1506     3.1715     0.0084 H       
  43 H43            5.6983    -0.6536    -0.0527 H       
  44 H44            7.2583     4.2342    -1.7884 H       
  45 H45            8.4887     6.3652    -1.7856 H       
  46 H46            8.0566     8.0375    -0.0330 H       
  47 H47            6.3950     7.5844     1.7248 H       
  48 H48            4.4656    -2.5242     0.4629 H       
  49 H49            2.6860    -2.4910     0.4793 H       
  50 H50            5.6861    -2.7248    -1.6210 H       
  51 H51            5.6605    -3.5339    -3.9437 H       
  52 H52            1.3733    -3.4539    -3.9041 H       
  53 H53            1.4206    -2.6509    -1.5797 H       
  54 H54            4.7835    -5.0210    -8.2582 H       
  55 H55           -1.9656    -5.8735    -8.2848 H       
  56 H56           -1.9411    -4.1926    -8.8698 H       
  57 H57           -2.3506    -5.5174    -9.9858 H       
  58 H58           -0.0257    -4.7351   -10.3482 H       
  59 H59           -0.0502    -6.4160    -9.7632 H       
@<TRIPOS>BOND
   1    1    2 ar
   2    1    6 ar
   3    1   39 1
   4    2    3 ar
   5    2   40 1
   6    3    4 ar
   7    3   41 1
   8    4    5 ar
   9    4    7 1
  10    5    6 ar
  11    5   10 1
  12    6   42 1
  13    7    8 1
  14    7   22 1
  15    8    9 2
  16    8   43 1
  17    9   10 1
  18    9   11 1
  19   10   13 2
  20   11   12 am
  21   11   21 2
  22   12   13 1
  23   12   14 1
  24   14   15 ar
  25   14   16 ar
  26   15   20 1
  27   15   19 ar
  28   16   17 ar
  29   16   44 1
  30   17   18 ar
  31   17   45 1
  32   18   19 ar
  33   18   46 1
  34   19   47 1
  35   22   23 1
  36   22   48 1
  37   22   49 1
  38   23   24 ar
  39   23   28 ar
  40   24   25 ar
  41   24   50 1
  42   25   26 ar
  43   25   51 1
  44   26   27 ar
  45   26   29 1
  46   27   28 ar
  47   27   52 1
  48   28   53 1
  49   29   30 2
  50   29   33 1
  51   30   31 1
  52   31   32 2
  53   31   34 1
  54   32   33 1
  55   32   54 1
  56   34   35 2
  57   34   36 1
  58   36   38 1
  59   37   38 1
  60   37   55 1
  61   37   56 1
  62   37   57 1
  63   38   58 1
  64   38   59 1

#	End of record

