#	Name: ASD01811334
#	Creating user name:	WinNT
#	Creation time:	15. 06. 2019 19:26

#	Modifying user name:	WinNT
#	Modification time:	15. 06. 2019 19:26

#	Program:	/corina/corina34_cracker 3.40 0067  02.08.2006

@<TRIPOS>MOLECULE
ASD01811334
  60   63    0    0    0
SMALL
NO_CHARGES


@<TRIPOS>ATOM
   1 N1            -0.0183     1.3812    -0.4583 N.am    
   2 C2             0.1668     0.3061    -1.2497 C.2     
   3 O3             1.2581     0.0945    -1.7423 O.2     
   4 N4            -0.8577    -0.5345    -1.4950 N.am    
   5 O5            -1.9922    -2.0785    -4.3130 O.3     
   6 C6            -0.8646    -1.3260    -3.8348 C.3     
   7 C7            -0.6565    -1.7032    -2.3553 C.3     
   8 C8            -1.7419    -2.7721    -2.0798 C.3     
   9 C9            -2.0728    -3.2745    -3.5083 C.3     
  10 C10            1.0683     2.1957    -0.1187 C.ar    
  11 C11            0.8813     3.5595     0.0730 C.ar    
  12 C12            1.9510     4.3680     0.4081 C.ar    
  13 C13            3.2121     3.8266     0.5545 C.ar    
  14 C14            3.4102     2.4581     0.3646 C.ar    
  15 C15            2.3294     1.6412     0.0320 C.ar    
  16 C16           -0.4923     4.1587    -0.0854 C.3     
  17 C17            4.7602     1.8753     0.5204 C.2     
  18 O18            4.9104     0.8518     1.1587 O.2     
  19 N19            5.8241     2.4790    -0.0453 N.am    
  20 C20            7.1560     1.8618     0.0175 C.3     
  21 C21            7.7170     1.7540    -1.4040 C.3     
  22 C22            7.6947     3.1351    -2.0629 C.3     
  23 C23            6.2517     3.6375    -2.1499 C.3     
  24 C24            5.6731     3.7638    -0.7418 C.3     
  25 F25            8.4539     4.0282    -1.2992 F       
  26 C26            8.2775     3.0394    -3.4494 C.ar    
  27 C27            8.6500     4.1904    -4.1208 C.ar    
  28 C28            9.1841     4.1100    -5.3901 C.ar    
  29 C29            9.3488     2.8634    -5.9971 C.ar    
  30 C30            8.9711     1.7058    -5.3136 C.ar    
  31 C31            8.4428     1.8005    -4.0428 C.ar    
  32 C32            9.9021     2.7724    -7.3147 C.1     
  33 N33           10.3411     2.7002    -8.3600 N.1     
  34 H34           -0.9052     1.5929    -0.1274 H       
  35 H35           -1.7283    -0.3657    -1.1020 H       
  36 H36            0.0239    -1.5831    -4.4114 H       
  37 H37           -1.0683    -0.2586    -3.9202 H       
  38 H38            0.3384    -2.1221    -2.2047 H       
  39 H39           -1.3450    -3.5802    -1.4655 H       
  40 H40           -2.6188    -2.3244    -1.6121 H       
  41 H41           -3.0780    -3.6943    -3.5443 H       
  42 H42           -1.3371    -4.0086    -3.8369 H       
  43 H43            1.7996     5.4272     0.5554 H       
  44 H44            4.0456     4.4618     0.8157 H       
  45 H45            2.4758     0.5808    -0.1118 H       
  46 H46           -1.0108     4.1374     0.8731 H       
  47 H47           -0.4017     5.1900    -0.4266 H       
  48 H48           -1.0580     3.5822    -0.8174 H       
  49 H49            7.8168     2.4798     0.6253 H       
  50 H50            7.0773     0.8668     0.4556 H       
  51 H51            8.7424     1.3868    -1.3635 H       
  52 H52            7.1055     1.0638    -1.9851 H       
  53 H53            6.2343     4.6108    -2.6404 H       
  54 H54            5.6540     2.9295    -2.7240 H       
  55 H55            4.6163     4.0235    -0.8044 H       
  56 H56            6.2105     4.5401    -0.1972 H       
  57 H57            8.5220     5.1540    -3.6501 H       
  58 H58            9.4738     5.0093    -5.9134 H       
  59 H59            9.0958     0.7384    -5.7772 H       
  60 H60            8.1541     0.9057    -3.5113 H       
@<TRIPOS>BOND
   1    1    2 am
   2    1   10 1
   3    1   34 1
   4    2    3 2
   5    2    4 am
   6    4    7 1
   7    4   35 1
   8    5    6 1
   9    5    9 1
  10    6    7 1
  11    6   36 1
  12    6   37 1
  13    7    8 1
  14    7   38 1
  15    8    9 1
  16    8   39 1
  17    8   40 1
  18    9   41 1
  19    9   42 1
  20   10   11 ar
  21   10   15 ar
  22   11   12 ar
  23   11   16 1
  24   12   13 ar
  25   12   43 1
  26   13   14 ar
  27   13   44 1
  28   14   15 ar
  29   14   17 1
  30   15   45 1
  31   16   46 1
  32   16   47 1
  33   16   48 1
  34   17   18 2
  35   17   19 am
  36   19   20 1
  37   19   24 1
  38   20   21 1
  39   20   49 1
  40   20   50 1
  41   21   22 1
  42   21   51 1
  43   21   52 1
  44   22   23 1
  45   22   25 1
  46   22   26 1
  47   23   24 1
  48   23   53 1
  49   23   54 1
  50   24   55 1
  51   24   56 1
  52   26   27 ar
  53   26   31 ar
  54   27   28 ar
  55   27   57 1
  56   28   29 ar
  57   28   58 1
  58   29   30 ar
  59   29   32 1
  60   30   31 ar
  61   30   59 1
  62   31   60 1
  63   32   33 3

#	End of record

