#	Name: ASD01910885
#	Creating user name:	WinNT
#	Creation time:	15. 06. 2019 19:56

#	Modifying user name:	WinNT
#	Modification time:	15. 06. 2019 19:56

#	Program:	/corina/corina34_cracker 3.40 0067  02.08.2006

@<TRIPOS>MOLECULE
ASD01910885
  50   54    0    0    0
SMALL
NO_CHARGES


@<TRIPOS>ATOM
   1 C1            -0.5753     0.8120     0.4809 C.ar    
   2 N2            -0.4872    -0.5612     0.2417 N.3     
   3 C3            -1.8474    -1.1674     0.0882 C.3     
   4 C4            -2.5226    -0.3081    -1.0253 C.3     
   5 N5            -1.8272    -0.6816    -2.2755 N.am    
   6 C6            -0.7750    -1.6667    -1.8869 C.3     
   7 C7             0.2273    -0.8346    -1.0286 C.3     
   8 C8            -2.0901    -0.2248    -3.5160 C.2     
   9 C9            -3.2411     0.6752    -3.7439 C.ar    
  10 C10           -3.9609     1.1792    -2.6583 C.ar    
  11 C11           -5.0363     2.0200    -2.8685 C.ar    
  12 C12           -5.4080     2.3685    -4.1512 C.ar    
  13 C13           -4.6968     1.8710    -5.2477 C.ar    
  14 C14           -3.6060     1.0266    -5.0416 C.ar    
  15 C15           -5.0834     2.2328    -6.5782 C.1     
  16 O16           -1.3812    -0.5527    -4.4473 O.2     
  17 C17           -5.4004     2.5293    -7.6690 C.1     
  18 C18           -5.7871     2.8910    -8.9995 C.ar    
  19 C19           -5.0838     2.4000   -10.1022 C.ar    
  20 N20           -5.4399     2.7331   -11.3254 N.ar    
  21 C21           -6.4618     3.5337   -11.5602 C.ar    
  22 C22           -7.2091     4.0624   -10.5226 C.ar    
  23 C23           -6.8812     3.7392    -9.2183 C.ar    
  24 C24           -1.6559     1.3276     1.1839 C.ar    
  25 C25           -1.7396     2.6883     1.4194 C.ar    
  26 C26           -0.7467     3.5344     0.9543 C.ar    
  27 C27            0.3296     3.0221     0.2537 C.ar    
  28 C28            0.4212     1.6640     0.0207 C.ar    
  29 F29           -2.7905     3.1919     2.1029 F       
  30 C30           -1.5092    -2.4559    -0.7443 C.3     
  31 H31           -2.4195    -1.3032     1.0060 H       
  32 H32           -3.5837    -0.5471    -1.0966 H       
  33 H33           -2.3861     0.7535    -0.8190 H       
  34 H34           -0.3433    -2.2529    -2.6981 H       
  35 H35            0.4731     0.0997    -1.5333 H       
  36 H36            1.1320    -1.4118    -0.8374 H       
  37 H37           -3.6760     0.9105    -1.6518 H       
  38 H38           -5.5893     2.4063    -2.0250 H       
  39 H39           -6.2499     3.0264    -4.3083 H       
  40 H40           -3.0529     0.6392    -5.8845 H       
  41 H41           -4.2409     1.7421    -9.9502 H       
  42 H42           -6.7193     3.7809   -12.5795 H       
  43 H43           -8.0428     4.7172   -10.7292 H       
  44 H44           -7.4476     4.1378    -8.3896 H       
  45 H45           -2.4302     0.6674     1.5461 H       
  46 H46           -0.8134     4.5964     1.1390 H       
  47 H47            1.1021     3.6845    -0.1080 H       
  48 H48            1.2625     1.2653    -0.5267 H       
  49 H49           -0.8401    -3.1307    -0.2105 H       
  50 H50           -2.4041    -2.9656    -1.1014 H       
@<TRIPOS>BOND
   1    1    2 1
   2    1   24 ar
   3    1   28 ar
   4    2    3 1
   5    2    7 1
   6    3    4 1
   7    3   30 1
   8    3   31 1
   9    4    5 1
  10    4   32 1
  11    4   33 1
  12    5    6 1
  13    5    8 am
  14    6    7 1
  15    6   30 1
  16    6   34 1
  17    7   35 1
  18    7   36 1
  19    8    9 1
  20    8   16 2
  21    9   10 ar
  22    9   14 ar
  23   10   11 ar
  24   10   37 1
  25   11   12 ar
  26   11   38 1
  27   12   13 ar
  28   12   39 1
  29   13   14 ar
  30   13   15 1
  31   14   40 1
  32   15   17 3
  33   17   18 1
  34   18   19 ar
  35   18   23 ar
  36   19   20 ar
  37   19   41 1
  38   20   21 ar
  39   21   22 ar
  40   21   42 1
  41   22   23 ar
  42   22   43 1
  43   23   44 1
  44   24   25 ar
  45   24   45 1
  46   25   26 ar
  47   25   29 1
  48   26   27 ar
  49   26   46 1
  50   27   28 ar
  51   27   47 1
  52   28   48 1
  53   30   49 1
  54   30   50 1

#	End of record

