#	Name: ASD01913778
#	Creating user name:	WinNT
#	Creation time:	15. 06. 2019 20:02

#	Modifying user name:	WinNT
#	Modification time:	15. 06. 2019 20:02

#	Program:	/corina/corina34_cracker 3.40 0067  02.08.2006

@<TRIPOS>MOLECULE
ASD01913778
  39   41    0    0    0
SMALL
NO_CHARGES


@<TRIPOS>ATOM
   1 C1            -0.0058     1.3614     0.1941 C.ar    
   2 C2            -0.0013     0.0016    -0.0623 C.ar    
   3 C3             1.1888    -0.6581    -0.3141 C.ar    
   4 C4             2.3802     0.0367    -0.3116 C.ar    
   5 C5             2.3835     1.4102    -0.0539 C.ar    
   6 C6             1.1777     2.0694     0.1999 C.ar    
   7 C7             3.6165     2.1383    -0.0492 C.1     
   8 C8             4.6274     2.7353    -0.0452 C.1     
   9 C9             5.8604     3.4635    -0.0404 C.ar    
  10 C10            5.8721     4.8425     0.2174 C.ar    
  11 C11            8.2483     4.7810    -0.0487 C.ar    
  12 N12            8.2054     3.4780    -0.2829 N.ar    
  13 C13            7.0702     2.8106    -0.2867 C.ar    
  14 C14            7.0856     5.5004     0.2110 C.ar    
  15 N15            9.4756     5.4396    -0.0561 N.am    
  16 C16            9.6468     6.7686    -0.0506 C.2     
  17 O17           10.9293     7.1489    -0.0592 O.3     
  18 C18           11.7855     5.9701    -0.0723 C.3     
  19 C19           10.7951     4.7897    -0.0648 C.3     
  20 O20            8.7218     7.5563    -0.0389 O.2     
  21 C21           12.6459     5.9461    -1.3373 C.3     
  22 O22           13.5713     7.0345    -1.3046 O.3     
  23 C23           14.4274     7.1040    -2.4467 C.3     
  24 H24           -0.9389     1.8704     0.3857 H       
  25 H25           -0.9312    -0.5477    -0.0656 H       
  26 H26            1.1847    -1.7197    -0.5127 H       
  27 H27            3.3083    -0.4795    -0.5079 H       
  28 H28            1.1727     3.1308     0.3995 H       
  29 H29            4.9543     5.3762     0.4155 H       
  30 H30            7.0749     1.7484    -0.4817 H       
  31 H31            7.1322     6.5618     0.4050 H       
  32 H32           12.4132     5.9437     0.8184 H       
  33 H33           10.9329     4.1799     0.8282 H       
  34 H34           10.9128     4.1853    -0.9642 H       
  35 H35           13.1935     5.0050    -1.3865 H       
  36 H36           12.0053     6.0401    -2.2142 H       
  37 H37           15.0120     6.1868    -2.5189 H       
  38 H38           13.8238     7.2219    -3.3466 H       
  39 H39           15.0995     7.9562    -2.3456 H       
@<TRIPOS>BOND
   1    1    2 ar
   2    1    6 ar
   3    1   24 1
   4    2    3 ar
   5    2   25 1
   6    3    4 ar
   7    3   26 1
   8    4    5 ar
   9    4   27 1
  10    5    6 ar
  11    5    7 1
  12    6   28 1
  13    7    8 3
  14    8    9 1
  15    9   10 ar
  16    9   13 ar
  17   10   14 ar
  18   10   29 1
  19   11   12 ar
  20   11   15 1
  21   11   14 ar
  22   12   13 ar
  23   13   30 1
  24   14   31 1
  25   15   16 am
  26   15   19 1
  27   16   17 1
  28   16   20 2
  29   17   18 1
  30   18   19 1
  31   18   21 1
  32   18   32 1
  33   19   33 1
  34   19   34 1
  35   21   22 1
  36   21   35 1
  37   21   36 1
  38   22   23 1
  39   23   37 1
  40   23   38 1
  41   23   39 1

#	End of record

