#	Name: ASD01140344
#	Creating user name:	WinNT
#	Creation time:	15. 06. 2019 19:00

#	Modifying user name:	WinNT
#	Modification time:	15. 06. 2019 19:00

#	Program:	/corina/corina34_cracker 3.40 0067  02.08.2006

@<TRIPOS>MOLECULE
ASD01140344
  61   65    0    0    0
SMALL
NO_CHARGES


@<TRIPOS>ATOM
   1 N1            -0.0499     1.3225     0.0858 N.pl3   
   2 C2            -0.0181    -0.0166     0.0725 C.2     
   3 C3             1.1625    -0.7251    -0.0084 C.2     
   4 C4             2.4310     0.0178    -0.0830 C.2     
   5 C5             2.3497     1.4891    -0.0658 C.ar    
   6 C6             3.4980     2.2797    -0.1329 C.ar    
   7 C7             3.3400     3.6598    -0.1121 C.ar    
   8 C8             2.0572     4.1943    -0.0261 C.ar    
   9 N9             0.9931     3.4227     0.0361 N.ar    
  10 C10            1.0856     2.0988     0.0200 C.ar    
  11 C11            1.1541    -2.1965    -0.0194 C.2     
  12 O12            1.4393    -2.8139     0.9892 O.2     
  13 N13            0.8305    -2.8601    -1.1469 N.am    
  14 O14            3.5021    -0.5588    -0.1554 O.2     
  15 C15           -1.3509     1.9910     0.1682 C.3     
  16 N16            4.4555     4.5016    -0.1761 N.pl3   
  17 C17            5.5455     6.6547     0.3826 C.3     
  18 C18            4.2781     5.9557    -0.1535 C.3     
  19 C19            4.1711     6.5177    -1.5870 C.3     
  20 C20            4.8611     7.8641    -1.5372 C.ar    
  21 C21            4.8027     8.9355    -2.4128 C.ar    
  22 C22            5.5305    10.0813    -2.1586 C.ar    
  23 C23            6.3203    10.1601    -1.0266 C.ar    
  24 C24            6.3799     9.0927    -0.1523 C.ar    
  25 C25            5.6508     7.9428    -0.4055 C.ar    
  26 C26            0.9063    -4.3277    -1.2072 C.3     
  27 C27           -0.4260    -4.8624    -1.7431 C.3     
  28 N28           -0.7368    -4.2035    -3.0188 N.3     
  29 C29           -0.9199    -2.7569    -2.8406 C.3     
  30 C30            0.3863    -2.1364    -2.3478 C.3     
  31 C31           -1.7191     2.2113     1.6368 C.3     
  32 C32           -1.9164    -4.8096    -3.6506 C.3     
  33 H33           -0.9495    -0.5605     0.1272 H       
  34 H34            4.4789     1.8325    -0.1985 H       
  35 H35            1.9327     5.2670    -0.0098 H       
  36 H36           -1.2980     2.9531    -0.3414 H       
  37 H37           -2.1096     1.3692    -0.3073 H       
  38 H38            5.3464     4.1226    -0.2356 H       
  39 H39            5.4378     6.8696     1.4458 H       
  40 H40            6.4231     6.0321     0.2087 H       
  41 H41            3.4050     6.2286     0.4391 H       
  42 H42            4.6791     5.8582    -2.2907 H       
  43 H43            3.1251     6.6390    -1.8686 H       
  44 H44            4.1861     8.8746    -3.2974 H       
  45 H45            5.4829    10.9150    -2.8436 H       
  46 H46            6.8904    11.0552    -0.8265 H       
  47 H47            6.9972     9.1550     0.7317 H       
  48 H48            1.7153    -4.6255    -1.8743 H       
  49 H49            1.0858    -4.7264    -0.2087 H       
  50 H50           -0.3500    -5.9385    -1.8986 H       
  51 H51           -1.2176    -4.6535    -1.0235 H       
  52 H52           -1.2020    -2.3061    -3.7921 H       
  53 H53           -1.7046    -2.5774    -2.1057 H       
  54 H54            0.2242    -1.0861    -2.1052 H       
  55 H55            1.1480    -2.2227    -3.1227 H       
  56 H56           -1.7720     1.2492     2.1463 H       
  57 H57           -0.9604     2.8330     2.1122 H       
  58 H58           -2.6871     2.7086     1.6980 H       
  59 H59           -2.7755    -4.7097    -2.9873 H       
  60 H60           -2.1243    -4.3030    -4.5931 H       
  61 H61           -1.7246    -5.8657    -3.8403 H       
@<TRIPOS>BOND
   1    1    2 1
   2    1   10 1
   3    1   15 1
   4    2    3 2
   5    2   33 1
   6    3    4 1
   7    3   11 1
   8    4    5 1
   9    4   14 2
  10    5    6 ar
  11    5   10 ar
  12    6    7 ar
  13    6   34 1
  14    7    8 ar
  15    7   16 1
  16    8    9 ar
  17    8   35 1
  18    9   10 ar
  19   11   12 2
  20   11   13 am
  21   13   26 1
  22   13   30 1
  23   15   31 1
  24   15   36 1
  25   15   37 1
  26   16   18 1
  27   16   38 1
  28   17   18 1
  29   17   25 1
  30   17   39 1
  31   17   40 1
  32   18   19 1
  33   18   41 1
  34   19   20 1
  35   19   42 1
  36   19   43 1
  37   20   21 ar
  38   20   25 ar
  39   21   22 ar
  40   21   44 1
  41   22   23 ar
  42   22   45 1
  43   23   24 ar
  44   23   46 1
  45   24   25 ar
  46   24   47 1
  47   26   27 1
  48   26   48 1
  49   26   49 1
  50   27   28 1
  51   27   50 1
  52   27   51 1
  53   28   29 1
  54   28   32 1
  55   29   30 1
  56   29   52 1
  57   29   53 1
  58   30   54 1
  59   30   55 1
  60   31   56 1
  61   31   57 1
  62   31   58 1
  63   32   59 1
  64   32   60 1
  65   32   61 1

#	End of record

