#	Name: ASD01820146
#	Creating user name:	WinNT
#	Creation time:	15. 06. 2019 19:36

#	Modifying user name:	WinNT
#	Modification time:	15. 06. 2019 19:36

#	Program:	/corina/corina34_cracker 3.40 0067  02.08.2006

@<TRIPOS>MOLECULE
ASD01820146
 120  133    0    0    0
SMALL
NO_CHARGES


@<TRIPOS>ATOM
   1 N1             0.9676     0.6963    -0.8629 N.pl3   
   2 C2             0.9149    -0.6765    -0.7829 C.2     
   3 C3             1.9693    -1.4883    -0.7403 C.2     
   4 C4             3.3637    -1.0556    -0.7962 C.3     
   5 N5             3.9767    -0.3767    -1.9465 N.3     
   6 C6             3.0637     0.2045    -2.9284 C.3     
   7 C7             2.4297     1.5536    -2.4992 C.3     
   8 C8             2.2316     1.4726    -0.9710 C.3     
   9 C9             4.4338    -2.0486    -0.3574 C.3     
  10 C10            5.2417    -2.2788    -1.5937 C.ar    
  11 C11            4.8687    -1.2943    -2.5285 C.ar    
  12 C12            6.2025    -3.2379    -1.8392 C.ar    
  13 C13            6.7785    -3.2653    -3.1004 C.ar    
  14 C14            6.3669    -2.3734    -4.0657 C.ar    
  15 C15            5.4078    -1.3957    -3.8098 C.ar    
  16 C16            3.3951     2.7001    -2.7960 C.3     
  17 C17            2.8429     4.0352    -2.3072 C.3     
  18 C18            2.6899     3.9875    -0.8071 C.3     
  19 C19            1.8504     2.8116    -0.3354 C.3     
  20 C20            0.3846     2.9062    -0.5239 C.ar    
  21 C21           -0.0697     1.6208    -0.8712 C.ar    
  22 C22           -0.4857     3.9753    -0.4165 C.ar    
  23 C23           -1.8254     3.7431    -0.6946 C.ar    
  24 C24           -2.2712     2.4921    -1.0603 C.ar    
  25 C25           -1.4214     1.4065    -1.1567 C.ar    
  26 C26            2.2061     2.7425     1.1759 C.3     
  27 C27            4.6580     2.3608    -2.0148 C.2     
  28 N28            3.9767     3.8377    -0.1037 N.4     
  29 C29            4.8559     2.7918    -0.6152 C.3     
  30 C30            3.5896     3.4167     1.2790 C.3     
  31 H31            2.2116     4.9101    -0.4718 H       
  32 H32            3.0870     1.0584    -0.4543 H       
  33 H33            1.4709     1.7147    -3.0242 H       
  34 H34            3.5584     2.7867    -3.8653 H       
  35 O35            3.7965     0.4319    -4.1721 O.3     
  36 C36            5.4544     1.6159    -2.7264 C.2     
  37 C37            4.9212     1.2679    -4.0769 C.3     
  38 H38            2.2545    -0.5120    -3.1263 H       
  39 H39            3.4453    -0.3395     0.0283 H       
  40 O40           -1.5267    -5.2270     0.7163 O.3     
  41 C41            3.8775    -3.3855     0.1352 C.3     
  42 C42            1.5550    -2.9486    -0.5550 C.3     
  43 C43            2.7648    -3.8611    -0.7687 C.3     
  44 C44            1.2383    -3.0932     0.9336 C.2     
  45 C45            2.3145    -2.6153     1.8742 C.3     
  46 N46            3.6125    -3.2133     1.5532 N.4     
  47 C47            5.2537    -1.5427     0.8287 C.3     
  48 C48            4.6601    -2.2773     2.0533 C.3     
  49 H49            4.6904    -4.1086     0.0453 H       
  50 H50            0.7148    -3.2202    -1.1860 H       
  51 C51            0.1064    -3.5940     1.3605 C.2     
  52 C52           -0.9777    -3.9521     0.3769 C.3     
  53 C53            4.6881     5.1227    -0.0527 C.3     
  54 C54            6.0259     4.9369     0.6661 C.3     
  55 C55            3.7466    -4.5058     2.2445 C.3     
  56 C56            3.2957    -4.3555     3.6988 C.3     
  57 C57            6.8704     6.2023     0.5010 C.3     
  58 C58            8.0832     6.1014     1.4348 C.3     
  59 C59            7.5873     6.1671     2.8810 C.3     
  60 C60            6.4577     5.2004     3.0845 C.2     
  61 C61            5.7757     4.6687     2.1213 C.2     
  62 C62            3.2944    -5.7288     4.3739 C.3     
  63 C63            3.0958    -5.5279     5.8816 C.3     
  64 C64            4.3377    -4.8338     6.4451 C.3     
  65 C65            4.6815    -3.6335     5.6126 C.2     
  66 C66            4.2317    -3.4276     4.4164 C.2     
  67 H67           -0.0701    -1.1324    -0.7452 H       
  68 H68            6.4955    -3.9438    -1.0741 H       
  69 H69            7.5601    -3.9752    -3.3203 H       
  70 H70            6.7966    -2.4362    -5.0557 H       
  71 H71            5.0828    -0.7996    -4.6472 H       
  72 H72            3.5231     4.8342    -2.5942 H       
  73 H73            1.8678     4.2069    -2.7665 H       
  74 H74           -0.1419     4.9565    -0.1250 H       
  75 H75           -2.5305     4.5587    -0.6259 H       
  76 H76           -3.3195     2.3560    -1.2806 H       
  77 H77           -1.7846     0.4292    -1.4382 H       
  78 H78            1.4741     3.2948     1.7652 H       
  79 H79            2.2620     1.7081     1.5119 H       
  80 H80            4.7461     1.9113     0.0161 H       
  81 H81            5.8849     3.1390    -0.5257 H       
  82 H82            3.5300     4.2884     1.9302 H       
  83 H83            4.3200     2.7098     1.6710 H       
  84 H84            6.4300     1.2854    -2.3586 H       
  85 H85            5.7490     0.7567    -4.6117 H       
  86 H86            4.7780     2.1702    -4.6708 H       
  87 H87           -2.2319    -5.5219     0.1240 H       
  88 H88            3.0867    -3.8100    -1.8082 H       
  89 H89            2.5007    -4.8888    -0.5202 H       
  90 H90            2.3928    -1.5297     1.8088 H       
  91 H91            2.0414    -2.8892     2.8949 H       
  92 H92            6.3063    -1.8063     0.7126 H       
  93 H93            5.1483    -0.4648     0.9461 H       
  94 H94            4.2235    -1.5579     2.7437 H       
  95 H95            5.4496    -2.8404     2.5538 H       
  96 H96           -0.0503    -3.7504     2.4175 H       
  97 H97           -0.5574    -3.9934    -0.6280 H       
  98 H98           -1.7634    -3.1973     0.4113 H       
  99 H99            4.8671     5.4794    -1.0670 H       
 100 H100           4.0836     5.8515     0.4874 H       
 101 H101           6.5555     4.0897     0.2305 H       
 102 H102           3.1254    -5.2504     1.7466 H       
 103 H103           4.7883    -4.8255     2.2182 H       
 104 H104           2.2885    -3.9397     3.7236 H       
 105 H105           7.2091     6.2846    -0.5318 H       
 106 H106           6.2760     7.0767     0.7657 H       
 107 H107           8.5975     5.1552     1.2664 H       
 108 H108           8.7636     6.9310     1.2427 H       
 109 H109           8.4054     5.9139     3.5553 H       
 110 H110           7.2418     7.1776     3.0989 H       
 111 H111           6.1978     4.9313     4.0976 H       
 112 H112           4.9767     3.9901     2.3811 H       
 113 H113           2.4798    -6.3327     3.9743 H       
 114 H114           4.2468    -6.2269     4.1930 H       
 115 H115           2.2177    -4.9061     6.0559 H       
 116 H116           2.9654    -6.4956     6.3661 H       
 117 H117           4.1417    -4.5186     7.4700 H       
 118 H118           5.1758    -5.5307     6.4377 H       
 119 H119           5.3451    -2.8953     6.0381 H       
 120 H120           4.5502    -2.5326     3.9027 H       
@<TRIPOS>BOND
   1    1    2 1
   2    1    8 1
   3    1   21 1
   4    2    3 2
   5    2   67 1
   6    3    4 1
   7    3   42 1
   8    4    5 1
   9    4    9 1
  10    4   39 1
  11    5    6 1
  12    5   11 1
  13    6    7 1
  14    6   35 1
  15    6   38 1
  16    7    8 1
  17    7   33 1
  18    7   16 1
  19    8   19 1
  20    8   32 1
  21    9   10 1
  22    9   41 1
  23    9   47 1
  24   10   11 ar
  25   10   12 ar
  26   11   15 ar
  27   12   13 ar
  28   12   68 1
  29   13   14 ar
  30   13   69 1
  31   14   15 ar
  32   14   70 1
  33   15   71 1
  34   16   17 1
  35   16   27 1
  36   16   34 1
  37   17   18 1
  38   17   72 1
  39   17   73 1
  40   18   19 1
  41   18   28 1
  42   18   31 1
  43   19   20 1
  44   19   26 1
  45   20   21 ar
  46   20   22 ar
  47   21   25 ar
  48   22   23 ar
  49   22   74 1
  50   23   24 ar
  51   23   75 1
  52   24   25 ar
  53   24   76 1
  54   25   77 1
  55   26   30 1
  56   26   78 1
  57   26   79 1
  58   27   36 2
  59   27   29 1
  60   28   29 1
  61   28   53 1
  62   28   30 1
  63   29   80 1
  64   29   81 1
  65   30   82 1
  66   30   83 1
  67   35   37 1
  68   36   37 1
  69   36   84 1
  70   37   85 1
  71   37   86 1
  72   40   52 1
  73   40   87 1
  74   41   46 1
  75   41   49 1
  76   41   43 1
  77   42   43 1
  78   42   44 1
  79   42   50 1
  80   43   88 1
  81   43   89 1
  82   44   45 1
  83   44   51 2
  84   45   46 1
  85   45   90 1
  86   45   91 1
  87   46   55 1
  88   46   48 1
  89   47   48 1
  90   47   92 1
  91   47   93 1
  92   48   94 1
  93   48   95 1
  94   51   52 1
  95   51   96 1
  96   52   97 1
  97   52   98 1
  98   53   54 1
  99   53   99 1
 100   53  100 1
 101   54   57 1
 102   54   61 1
 103   54  101 1
 104   55   56 1
 105   55  102 1
 106   55  103 1
 107   56   62 1
 108   56   66 1
 109   56  104 1
 110   57   58 1
 111   57  105 1
 112   57  106 1
 113   58   59 1
 114   58  107 1
 115   58  108 1
 116   59   60 1
 117   59  109 1
 118   59  110 1
 119   60   61 2
 120   60  111 1
 121   61  112 1
 122   62   63 1
 123   62  113 1
 124   62  114 1
 125   63   64 1
 126   63  115 1
 127   63  116 1
 128   64   65 1
 129   64  117 1
 130   64  118 1
 131   65   66 2
 132   65  119 1
 133   66  120 1

#	End of record

