#	Name: ASD01180159
#	Creating user name:	WinNT
#	Creation time:	15. 06. 2019 19:06

#	Modifying user name:	WinNT
#	Modification time:	15. 06. 2019 19:06

#	Program:	/corina/corina34_cracker 3.40 0067  02.08.2006

@<TRIPOS>MOLECULE
ASD01180159
  41   43    0    0    0
SMALL
NO_CHARGES


@<TRIPOS>ATOM
   1 C1            -0.0159     1.3207     0.0093 C.ar    
   2 N2             0.0021    -0.0041     0.0020 N.ar    
   3 C3             1.1439    -0.6663    -0.0125 C.ar    
   4 C4             2.3446     0.0514    -0.0201 C.ar    
   5 C5             2.2813     1.4489    -0.0120 C.ar    
   6 N6             1.0992     2.0363     0.0025 N.ar    
   7 N7            -1.2408     1.9794     0.0186 N.pl3   
   8 N8            -2.5038     1.3735     0.0218 N.2     
   9 C9            -3.4120     2.3145     0.0314 C.2     
  10 C10           -2.7619     3.5584     0.0349 C.2     
  11 C11           -1.4266     3.3304     0.0324 C.2     
  12 O12           -3.3667     4.7788     0.0439 O.3     
  13 C13           -4.7956     4.7947     0.0510 C.3     
  14 F14           -5.2636     4.1348     1.1924 F       
  15 F15           -5.2471     6.1188     0.0598 F       
  16 F16           -5.2749     4.1461    -1.0921 F       
  17 O17            5.0361    -0.1045    -0.0462 O.3     
  18 B18            3.7273    -0.6921    -0.0369 Du      
  19 O19            3.9588    -2.1080    -0.0457 O.3     
  20 C20            5.0877    -2.2990     0.8327 C.3     
  21 C21            5.8182    -0.9406     0.8324 C.3     
  22 C22            7.2401    -1.1001     0.2906 C.3     
  23 C23            5.8472    -0.3506     2.2437 C.3     
  24 C24            4.6118    -2.6480     2.2443 C.3     
  25 C25            6.0047    -3.3975     0.2912 C.3     
  26 H26            1.1510    -1.7463    -0.0180 H       
  27 H27            3.1862     2.0385    -0.0172 H       
  28 H28           -4.4810     2.1605     0.0357 H       
  29 H29           -0.6507     4.0816     0.0382 H       
  30 H30            7.7222    -0.1237     0.2425 H       
  31 H31            7.8093    -1.7542     0.9510 H       
  32 H32            7.2018    -1.5359    -0.7077 H       
  33 H33            4.8284    -0.2588     2.6202 H       
  34 H34            6.4194    -1.0063     2.9000 H       
  35 H35            6.3145     0.6338     2.2165 H       
  36 H36            4.0482    -3.5806     2.2176 H       
  37 H37            5.4745    -2.7635     2.9005 H       
  38 H38            3.9736    -1.8485     2.6206 H       
  39 H39            6.3470    -3.1256    -0.7073 H       
  40 H40            6.8645    -3.5114     0.9515 H       
  41 H41            5.4560    -4.3381     0.2436 H       
@<TRIPOS>BOND
   1    1    2 ar
   2    1    6 ar
   3    1    7 1
   4    2    3 ar
   5    3    4 ar
   6    3   26 1
   7    4    5 ar
   8    4   18 1
   9    5    6 ar
  10    5   27 1
  11    7    8 1
  12    7   11 1
  13    8    9 2
  14    9   10 1
  15    9   28 1
  16   10   11 2
  17   10   12 1
  18   11   29 1
  19   12   13 1
  20   13   14 1
  21   13   15 1
  22   13   16 1
  23   17   18 1
  24   17   21 1
  25   18   19 1
  26   19   20 1
  27   20   21 1
  28   20   24 1
  29   20   25 1
  30   21   22 1
  31   21   23 1
  32   22   30 1
  33   22   31 1
  34   22   32 1
  35   23   33 1
  36   23   34 1
  37   23   35 1
  38   24   36 1
  39   24   37 1
  40   24   38 1
  41   25   39 1
  42   25   40 1
  43   25   41 1

#	End of record

