#	Name: ASD01814857
#	Creating user name:	WinNT
#	Creation time:	15. 06. 2019 19:33

#	Modifying user name:	WinNT
#	Modification time:	15. 06. 2019 19:33

#	Program:	/corina/corina34_cracker 3.40 0067  02.08.2006

@<TRIPOS>MOLECULE
ASD01814857
  49   52    0    0    0
SMALL
NO_CHARGES


@<TRIPOS>ATOM
   1 C1             0.0943     1.5317    -0.0273 C.2     
   2 C2             0.0739     0.1305    -0.0384 C.2     
   3 C3             1.2515    -0.5582    -0.0434 C.2     
   4 C4             2.4652     0.1493    -0.0373 C.2     
   5 N5             2.4556     1.5177    -0.0261 N.am    
   6 C6             1.2725     2.1952    -0.0215 C.2     
   7 C7             3.6768    -0.5560    -0.0423 C.2     
   8 C8             4.8614     0.1215    -0.0361 C.2     
   9 C9             4.8477     1.5287    -0.0251 C.2     
  10 C10            3.6130     2.2092    -0.0198 C.2     
  11 O11            3.5918     3.4285    -0.0107 O.2     
  12 C12            6.1051     2.2795    -0.0177 C.2     
  13 O13            6.0852     3.6283    -0.0072 O.3     
  14 O14            7.1674     1.6869    -0.0211 O.2     
  15 C15            3.6711    -2.0630    -0.0541 C.3     
  16 N16            3.7905    -2.5423    -1.4376 N.3     
  17 C17            4.0263    -3.9923    -1.4741 C.3     
  18 C18            4.0652    -4.4637    -2.9297 C.3     
  19 N19            5.1256    -3.7424    -3.6473 N.3     
  20 C20            4.8898    -2.2923    -3.6108 C.3     
  21 C21            4.8508    -1.8209    -2.1552 C.3     
  22 H22            4.9780    -4.2182    -0.9931 H       
  23 C23            5.2386    -4.1960    -4.9567 C.ar    
  24 C24            4.9132    -3.3591    -6.0156 C.ar    
  25 C25            5.6879    -5.5008    -5.2151 C.ar    
  26 C26            5.7968    -5.9440    -6.5353 C.ar    
  27 C27            5.4637    -5.1005    -7.5734 C.ar    
  28 C28            5.0257    -3.8119    -7.3150 C.ar    
  29 H29            4.2689    -5.5341    -2.9600 H       
  30 H30            3.1041    -4.2625    -3.4029 H       
  31 C31            6.0328    -6.3718    -4.1320 C.1     
  32 N32            6.3064    -7.0627    -3.2728 N.1     
  33 H33           -0.8341     2.0835    -0.0278 H       
  34 H34           -0.8668    -0.4001    -0.0426 H       
  35 H35            1.2508    -1.6381    -0.0516 H       
  36 H36            1.2763     3.2752    -0.0127 H       
  37 H37            5.7982    -0.4158    -0.0392 H       
  38 H38            6.9403     4.0800    -0.0026 H       
  39 H39            4.5112    -2.4341     0.5328 H       
  40 H40            2.7381    -2.4262     0.3769 H       
  41 H41            3.2215    -4.5050    -0.9472 H       
  42 H42            5.6945    -1.7796    -4.1377 H       
  43 H43            3.9380    -2.0664    -4.0917 H       
  44 H44            4.6472    -0.7506    -2.1249 H       
  45 H45            5.8119    -2.0221    -1.6820 H       
  46 H46            4.5713    -2.3530    -5.8227 H       
  47 H47            6.1420    -6.9461    -6.7425 H       
  48 H48            5.5488    -5.4445    -8.5935 H       
  49 H49            4.7667    -3.1587    -8.1351 H       
@<TRIPOS>BOND
   1    1    2 1
   2    1    6 2
   3    1   33 1
   4    2    3 2
   5    2   34 1
   6    3    4 1
   7    3   35 1
   8    4    5 1
   9    4    7 2
  10    5    6 1
  11    5   10 am
  12    6   36 1
  13    7   15 1
  14    7    8 1
  15    8    9 2
  16    8   37 1
  17    9   10 1
  18    9   12 1
  19   10   11 2
  20   12   13 1
  21   12   14 2
  22   13   38 1
  23   15   16 1
  24   15   39 1
  25   15   40 1
  26   16   17 1
  27   16   21 1
  28   17   18 1
  29   17   22 1
  30   17   41 1
  31   18   19 1
  32   18   29 1
  33   18   30 1
  34   19   20 1
  35   19   23 1
  36   20   21 1
  37   20   42 1
  38   20   43 1
  39   21   44 1
  40   21   45 1
  41   23   24 ar
  42   23   25 ar
  43   24   28 ar
  44   24   46 1
  45   25   26 ar
  46   25   31 1
  47   26   27 ar
  48   26   47 1
  49   27   28 ar
  50   27   48 1
  51   28   49 1
  52   31   32 3

#	End of record

