#	Name: ASD01120295
#	Creating user name:	WinNT
#	Creation time:	15. 06. 2019 18:59

#	Modifying user name:	WinNT
#	Modification time:	15. 06. 2019 18:59

#	Program:	/corina/corina34_cracker 3.40 0067  02.08.2006

@<TRIPOS>MOLECULE
ASD01120295
  42   44    0    0    0
SMALL
NO_CHARGES


@<TRIPOS>ATOM
   1 C1             0.3278     1.2576    -0.6228 C.3     
   2 C2             0.0734    -0.2250    -0.3434 C.3     
   3 O3             0.9761    -0.6833     0.6975 O.3     
   4 C4             0.8806    -1.9776     1.0646 C.2     
   5 O5             0.0648    -2.7029     0.5289 O.2     
   6 C6             1.7610    -2.5103     2.1102 C.2     
   7 N7             2.7251    -1.7895     2.7924 N.pl3   
   8 C8             3.3451    -2.6238     3.6929 C.ar    
   9 C9             2.7516    -3.8946     3.5671 C.ar    
  10 C10            1.7568    -3.7913     2.5692 C.2     
  11 C11            3.1988    -4.9547     4.3788 C.ar    
  12 C12            4.2159    -4.7341     5.2896 C.ar    
  13 C13            4.7933    -3.4785     5.4057 C.ar    
  14 C14            4.3668    -2.4312     4.6185 C.ar    
  15 N15            4.9961    -1.0985     4.7574 N.pl3   
  16 O16            5.8901    -0.9286     5.5670 O.2     
  17 O17            4.6200    -0.1719     4.0621 O.2     
  18 N18            2.6208    -6.2162     4.2655 N.pl3   
  19 C19            3.1686    -7.3001     4.9561 C.ar    
  20 C20            2.3366    -8.2095     5.5971 C.ar    
  21 C21            2.8813    -9.2801     6.2784 C.ar    
  22 C22            4.2534    -9.4474     6.3231 C.ar    
  23 C23            5.0845    -8.5440     5.6862 C.ar    
  24 C24            4.5463    -7.4742     4.9986 C.ar    
  25 C25            4.8442   -10.6166     7.0680 C.3     
  26 H26            1.3586     1.3940    -0.9498 H       
  27 H27           -0.3499     1.6016    -1.4041 H       
  28 H28            0.1560     1.8334     0.2866 H       
  29 H29           -0.9574    -0.3614    -0.0163 H       
  30 H30            0.2452    -0.8008    -1.2528 H       
  31 H31            2.9300    -0.8510     2.6576 H       
  32 H32            1.1125    -4.5879     2.2277 H       
  33 H33            4.5623    -5.5442     5.9143 H       
  34 H34            5.5865    -3.3198     6.1213 H       
  35 H35            1.8378    -6.3426     3.7071 H       
  36 H36            1.2650    -8.0792     5.5628 H       
  37 H37            2.2352    -9.9872     6.7772 H       
  38 H38            6.1556    -8.6777     5.7231 H       
  39 H39            5.1959    -6.7690     4.5014 H       
  40 H40            4.9455   -11.4650     6.3911 H       
  41 H41            5.8252   -10.3421     7.4558 H       
  42 H42            4.1893   -10.8884     7.8958 H       
@<TRIPOS>BOND
   1    1    2 1
   2    1   26 1
   3    1   27 1
   4    1   28 1
   5    2    3 1
   6    2   29 1
   7    2   30 1
   8    3    4 1
   9    4    5 2
  10    4    6 1
  11    6    7 1
  12    6   10 2
  13    7    8 1
  14    7   31 1
  15    8    9 ar
  16    8   14 ar
  17    9   10 1
  18    9   11 ar
  19   10   32 1
  20   11   12 ar
  21   11   18 1
  22   12   13 ar
  23   12   33 1
  24   13   14 ar
  25   13   34 1
  26   14   15 1
  27   15   16 2
  28   15   17 2
  29   18   19 1
  30   18   35 1
  31   19   20 ar
  32   19   24 ar
  33   20   21 ar
  34   20   36 1
  35   21   22 ar
  36   21   37 1
  37   22   23 ar
  38   22   25 1
  39   23   24 ar
  40   23   38 1
  41   24   39 1
  42   25   40 1
  43   25   41 1
  44   25   42 1

#	End of record

