#	Name: ASD07300674
#	Creating user name:	WinNT
#	Creation time:	15. 06. 2019 21:10

#	Modifying user name:	WinNT
#	Modification time:	15. 06. 2019 21:10

#	Program:	/corina/corina34_cracker 3.40 0067  02.08.2006

@<TRIPOS>MOLECULE
ASD07300674
  18   18    0    0    0
SMALL
NO_CHARGES


@<TRIPOS>ATOM
   1 C1            -0.0187     1.5258     0.0104 C.3     
   2 C2             0.0021    -0.0041     0.0020 C.3     
   3 C3            -1.4117    -0.5257     0.0127 C.ar    
   4 C4            -1.8233    -1.4035    -0.9726 C.ar    
   5 C5            -3.1255    -1.8780    -0.9538 C.ar    
   6 C6            -3.9697    -1.4497     0.0606 C.ar    
   7 C7            -3.4869    -0.5700     1.0120 C.ar    
   8 N8            -2.2399    -0.1436     0.9649 N.ar    
   9 Br9           -5.7576    -2.0604     0.1407 Br      
  10 O10            1.3220     2.0204     0.0003 O.3     
  11 H11           -0.5459     1.8868    -0.8726 H       
  12 H12           -0.5289     1.8773     0.9072 H       
  13 H13            0.5123    -0.3556    -0.8948 H       
  14 H14            0.5293    -0.3651     0.8851 H       
  15 H15           -1.1388    -1.7155    -1.7476 H       
  16 H16           -3.4748    -2.5645    -1.7109 H       
  17 H17           -4.1374    -0.2313     1.8049 H       
  18 H18            1.3852     2.9853     0.0049 H       
@<TRIPOS>BOND
   1    1    2 1
   2    1   10 1
   3    1   11 1
   4    1   12 1
   5    2    3 1
   6    2   13 1
   7    2   14 1
   8    3    4 ar
   9    3    8 ar
  10    4    5 ar
  11    4   15 1
  12    5    6 ar
  13    5   16 1
  14    6    7 ar
  15    6    9 1
  16    7    8 ar
  17    7   17 1
  18   10   18 1

#	End of record

