#	Name: ASD09740141
#	Creating user name:	WinNT
#	Creation time:	15. 06. 2019 21:22

#	Modifying user name:	WinNT
#	Modification time:	15. 06. 2019 21:22

#	Program:	/corina/corina34_cracker 3.40 0067  02.08.2006

@<TRIPOS>MOLECULE
ASD09740141
  59   62    0    0    0
SMALL
NO_CHARGES


@<TRIPOS>ATOM
   1 O1             0.1118     1.2947     0.1066 O.3     
   2 N2             0.0878     0.0823     0.0936 N.2     
   3 C3             1.3804     1.7276     0.0344 C.2     
   4 N4             2.1482     0.6549    -0.0252 N.2     
   5 C5             1.3030    -0.3962     0.0137 C.2     
   6 C6             1.6820    -1.8309    -0.0258 C.ar    
   7 C7             1.8310     3.1340     0.0230 C.ar    
   8 C8             0.6978    -2.8154     0.0224 C.ar    
   9 C9             3.0232    -2.1975    -0.1169 C.ar    
  10 C10            3.3700    -3.5327    -0.1532 C.ar    
  11 C11            2.3889    -4.5065    -0.0994 C.ar    
  12 C12            1.0558    -4.1481    -0.0146 C.ar    
  13 C13            3.1930     3.4318    -0.0569 C.ar    
  14 C14            3.6121     4.7450    -0.0674 C.ar    
  15 C15            2.6830     5.7736     0.0013 C.ar    
  16 C16            1.3224     5.4835     0.0812 C.ar    
  17 C17            0.8954     4.1691     0.0863 C.ar    
  18 O18            3.1010     7.0664    -0.0090 O.3     
  19 C19            4.5096     7.2922    -0.0921 C.3     
  20 C20            4.7858     8.7970    -0.0912 C.3     
  21 O21            0.4144     6.4937     0.1484 O.3     
  22 C22           -0.9635     6.1233     0.2285 C.3     
  23 C23           -1.8274     7.3842     0.2960 C.3     
  24 C24           -0.0074    -5.2145     0.0442 C.3     
  25 N25           -0.4740    -5.3648     1.4290 N.3     
  26 C26           -1.7472    -6.1067     1.4799 C.3     
  27 C27           -1.5276    -7.3294     2.3955 C.3     
  28 C28           -0.3143    -6.9027     3.2632 C.3     
  29 C29            0.5235    -6.0847     2.2490 C.3     
  30 C30           -0.7552    -2.4264     0.1152 C.3     
  31 H31            3.7899    -1.4380    -0.1594 H       
  32 H32            4.4093    -3.8179    -0.2242 H       
  33 H33            2.6647    -5.5503    -0.1281 H       
  34 H34            3.9181     2.6332    -0.1102 H       
  35 H35            4.6657     4.9739    -0.1289 H       
  36 H36           -0.1588     3.9427     0.1482 H       
  37 H37            5.0025     6.8318     0.7641 H       
  38 H38            4.8943     6.8527    -1.0124 H       
  39 H39            5.8602     8.9692    -0.1546 H       
  40 H40            4.2929     9.2574    -0.9474 H       
  41 H41            4.4011     9.2365     0.8291 H       
  42 H42           -1.2356     5.5432    -0.6533 H       
  43 H43           -1.1268     5.5226     1.1233 H       
  44 H44           -1.6640     7.9849    -0.5988 H       
  45 H45           -2.8784     7.1017     0.3570 H       
  46 H46           -1.5553     7.9644     1.1777 H       
  47 H47           -0.8447    -4.9282    -0.5923 H       
  48 H48            0.4071    -6.1605    -0.3042 H       
  49 H49           -2.5307    -5.4708     1.8921 H       
  50 H50           -2.0237    -6.4379     0.4790 H       
  51 H51           -2.4040    -7.5064     3.0190 H       
  52 H52           -1.2876    -8.2142     1.8060 H       
  53 H53           -0.6321    -6.2799     4.0994 H       
  54 H54            0.2395    -7.7732     3.6150 H       
  55 H55            1.1189    -6.7505     1.6243 H       
  56 H56            1.1669    -5.3771     2.7718 H       
  57 H57           -1.1386    -2.2128    -0.8825 H       
  58 H58           -1.3233    -3.2461     0.5551 H       
  59 H59           -0.8545    -1.5390     0.7403 H       
@<TRIPOS>BOND
   1    1    2 1
   2    1    3 1
   3    2    5 2
   4    3    4 2
   5    3    7 1
   6    4    5 1
   7    5    6 1
   8    6    8 ar
   9    6    9 ar
  10    7   13 ar
  11    7   17 ar
  12    8   30 1
  13    8   12 ar
  14    9   10 ar
  15    9   31 1
  16   10   11 ar
  17   10   32 1
  18   11   12 ar
  19   11   33 1
  20   12   24 1
  21   13   14 ar
  22   13   34 1
  23   14   15 ar
  24   14   35 1
  25   15   16 ar
  26   15   18 1
  27   16   17 ar
  28   16   21 1
  29   17   36 1
  30   18   19 1
  31   19   20 1
  32   19   37 1
  33   19   38 1
  34   20   39 1
  35   20   40 1
  36   20   41 1
  37   21   22 1
  38   22   23 1
  39   22   42 1
  40   22   43 1
  41   23   44 1
  42   23   45 1
  43   23   46 1
  44   24   25 1
  45   24   47 1
  46   24   48 1
  47   25   26 1
  48   25   29 1
  49   26   27 1
  50   26   49 1
  51   26   50 1
  52   27   28 1
  53   27   51 1
  54   27   52 1
  55   28   29 1
  56   28   53 1
  57   28   54 1
  58   29   55 1
  59   29   56 1
  60   30   57 1
  61   30   58 1
  62   30   59 1

#	End of record

