#	Name: ASD01913999
#	Creating user name:	WinNT
#	Creation time:	15. 06. 2019 20:02

#	Modifying user name:	WinNT
#	Modification time:	15. 06. 2019 20:02

#	Program:	/corina/corina34_cracker 3.40 0067  02.08.2006

@<TRIPOS>MOLECULE
ASD01913999
  44   45    0    0    0
SMALL
NO_CHARGES


@<TRIPOS>ATOM
   1 C1            -0.0167     1.3779     0.0096 C.ar    
   2 C2             0.0021    -0.0041     0.0020 C.ar    
   3 C3             1.2099    -0.6820    -0.0127 C.ar    
   4 C4             2.3995     0.0240    -0.0204 C.ar    
   5 C5             2.3810     1.4110    -0.0132 C.ar    
   6 C6             1.1694     2.0866     0.0021 C.ar    
   7 O7             3.5481     2.1071    -0.0202 O.3     
   8 C8             3.4532     3.5329    -0.0121 C.3     
   9 C9             4.8374     4.1286    -0.0216 C.ar    
  10 N10            4.9794     5.4402    -0.0163 N.ar    
  11 C11            6.1661     6.0113    -0.0241 C.ar    
  12 C12            7.3263     5.2366    -0.0389 C.ar    
  13 C13            7.2079     3.8414    -0.0449 C.ar    
  14 C14            5.9386     3.2910    -0.0301 C.ar    
  15 C15            8.6583     5.8780    -0.0486 C.2     
  16 N16            8.7592     7.2220    -0.0432 N.am    
  17 O17            9.6625     5.1932    -0.0615 O.2     
  18 F18            1.2262    -2.0329    -0.0193 F       
  19 C19           10.0791     7.8575    -0.0529 C.3     
  20 C20            9.9656     9.2596    -0.6548 C.3     
  21 C21           10.6069     7.9587     1.3796 C.3     
  22 C22           11.3441     9.9233    -0.6648 C.3     
  23 C23            9.4378     9.1584    -2.0873 C.3     
  24 H24           -0.9596     1.9044     0.0169 H       
  25 H25           -0.9262    -0.5561     0.0080 H       
  26 H26            3.3416    -0.5040    -0.0315 H       
  27 H27            1.1533     3.1665     0.0073 H       
  28 H28            2.9084     3.8658    -0.8956 H       
  29 H29            2.9244     3.8568     0.8843 H       
  30 H30            6.2417     7.0887    -0.0193 H       
  31 H31            8.0848     3.2111    -0.0563 H       
  32 H32            5.8086     2.2189    -0.0341 H       
  33 H33            7.9578     7.7684    -0.0329 H       
  34 H34           10.7659     7.2595    -0.6518 H       
  35 H35            9.2788     9.8576    -0.0558 H       
  36 H36            9.9201     8.5567     1.9786 H       
  37 H37           10.6877     6.9598     1.8085 H       
  38 H38           11.5890     8.4315     1.3725 H       
  39 H39           12.0310     9.3253    -1.2638 H       
  40 H40           11.2633    10.9222    -1.0936 H       
  41 H41           11.7202     9.9954     0.3557 H       
  42 H42            9.3570    10.1573    -2.5161 H       
  43 H43           10.1247     8.5604    -2.6862 H       
  44 H44            8.4558     8.6855    -2.0801 H       
@<TRIPOS>BOND
   1    1    2 ar
   2    1    6 ar
   3    1   24 1
   4    2    3 ar
   5    2   25 1
   6    3    4 ar
   7    3   18 1
   8    4    5 ar
   9    4   26 1
  10    5    6 ar
  11    5    7 1
  12    6   27 1
  13    7    8 1
  14    8    9 1
  15    8   28 1
  16    8   29 1
  17    9   10 ar
  18    9   14 ar
  19   10   11 ar
  20   11   12 ar
  21   11   30 1
  22   12   13 ar
  23   12   15 1
  24   13   14 ar
  25   13   31 1
  26   14   32 1
  27   15   16 am
  28   15   17 2
  29   16   19 1
  30   16   33 1
  31   19   20 1
  32   19   21 1
  33   19   34 1
  34   20   22 1
  35   20   23 1
  36   20   35 1
  37   21   36 1
  38   21   37 1
  39   21   38 1
  40   22   39 1
  41   22   40 1
  42   22   41 1
  43   23   42 1
  44   23   43 1
  45   23   44 1

#	End of record

