#	Name: ASD03091446
#	Creating user name:	WinNT
#	Creation time:	15. 06. 2019 20:30

#	Modifying user name:	WinNT
#	Modification time:	15. 06. 2019 20:30

#	Program:	/corina/corina34_cracker 3.40 0067  02.08.2006

@<TRIPOS>MOLECULE
ASD03091446
  31   33    0    0    0
SMALL
NO_CHARGES


@<TRIPOS>ATOM
   1 C1             0.8502     3.1758    -0.1559 C.3     
   2 C2             0.2182     1.8365    -0.5406 C.3     
   3 N3             0.3858     0.8801     0.5611 N.3     
   4 C4            -0.2947     1.3463     1.7760 C.3     
   5 C5             0.3211     2.6708     2.2316 C.3     
   6 C6             1.8087     2.4608     2.5338 C.3     
   7 N7             2.4972     2.0989     1.2874 N.am    
   8 C8             2.3446     2.9717     0.1154 C.3     
   9 C9             0.1777     3.7076     1.1133 C.3     
  10 C10            3.2546     0.9861     1.2201 C.2     
  11 O11            3.4612     0.3295     2.2229 O.2     
  12 S12            3.1167     0.7079    -1.6798 S.3     
  13 N13            4.3095     0.0619    -2.4563 N.2     
  14 C14            5.2511    -0.2791    -1.6344 C.2     
  15 C15            5.0586    -0.0318    -0.2948 C.2     
  16 C16            3.8314     0.5656    -0.0661 C.2     
  17 H17            0.7209     3.8881    -0.9707 H       
  18 H18           -0.8441     1.9798    -0.7387 H       
  19 H19            0.7052     1.4487    -1.4353 H       
  20 H20            0.0625    -0.0380     0.2953 H       
  21 H21           -1.3543     1.4919     1.5656 H       
  22 H22           -0.1802     0.6025     2.5645 H       
  23 H23           -0.1882     3.0208     3.1295 H       
  24 H24            2.2343     3.3818     2.9323 H       
  25 H25            1.9239     1.6575     3.2616 H       
  26 H26            2.8130     2.5052    -0.7512 H       
  27 H27            2.8149     3.9349     0.3134 H       
  28 H28            0.6567     4.6387     1.4163 H       
  29 H29           -0.8792     3.8878     0.9171 H       
  30 H30            6.1591    -0.7435    -1.9899 H       
  31 H31            5.7726    -0.2734     0.4786 H       
@<TRIPOS>BOND
   1    1    2 1
   2    1    8 1
   3    1    9 1
   4    1   17 1
   5    2    3 1
   6    2   18 1
   7    2   19 1
   8    3    4 1
   9    3   20 1
  10    4    5 1
  11    4   21 1
  12    4   22 1
  13    5    6 1
  14    5    9 1
  15    5   23 1
  16    6    7 1
  17    6   24 1
  18    6   25 1
  19    7    8 1
  20    7   10 am
  21    8   26 1
  22    8   27 1
  23    9   28 1
  24    9   29 1
  25   10   11 2
  26   10   16 1
  27   12   13 1
  28   12   16 1
  29   13   14 2
  30   14   15 1
  31   14   30 1
  32   15   16 2
  33   15   31 1

#	End of record

