#	Name: ASD07301071
#	Creating user name:	WinNT
#	Creation time:	15. 06. 2019 21:10

#	Modifying user name:	WinNT
#	Modification time:	15. 06. 2019 21:10

#	Program:	/corina/corina34_cracker 3.40 0067  02.08.2006

@<TRIPOS>MOLECULE
ASD07301071
  33   33    0    0    0
SMALL
NO_CHARGES


@<TRIPOS>ATOM
   1 C1            -0.0188     1.3434    -0.0159 C.2     
   2 N2             0.0021    -0.0041     0.0020 N.am    
   3 O3             1.0240     1.9671    -0.0305 O.2     
   4 O4            -1.1953     1.9985    -0.0232 O.3     
   5 C5             1.2206    -0.6883    -0.1192 C.ar    
   6 C6             1.4105    -1.8945     0.5464 C.ar    
   7 C7             2.6118    -2.5677     0.4255 C.ar    
   8 C8             3.6267    -2.0398    -0.3595 C.ar    
   9 C9             3.4369    -0.8370    -1.0231 C.ar    
  10 C10            2.2351    -0.1651    -0.9077 C.ar    
  11 F11            0.4219    -2.4076     1.3109 F       
  12 O12            4.8084    -2.7020    -0.4779 O.3     
  13 C13            5.8091    -2.1010    -1.3020 C.3     
  14 F14            5.3208    -1.9675    -2.6062 F       
  15 F15            6.1349    -0.8387    -0.7945 F       
  16 C16           -1.1417     3.4494    -0.0426 C.3     
  17 C17           -0.4037     3.9158    -1.2991 C.3     
  18 C18           -2.5645     4.0122    -0.0484 C.3     
  19 C19           -0.4007     3.9491     1.1992 C.3     
  20 H20           -0.8255    -0.5007     0.0987 H       
  21 H21            2.7604    -3.5043     0.9423 H       
  22 H22            4.2279    -0.4269    -1.6335 H       
  23 H23            2.0868     0.7695    -1.4282 H       
  24 H24            6.6992    -2.7301    -1.3100 H       
  25 H25           -0.9316     3.5598    -2.1838 H       
  26 H26           -0.3635     5.0049    -1.3136 H       
  27 H27            0.6099     3.5148    -1.2949 H       
  28 H28           -3.0903     3.6799     0.8467 H       
  29 H29           -2.5243     5.1014    -0.0630 H       
  30 H30           -3.0924     3.6562    -0.9331 H       
  31 H31            0.6129     3.5481     1.2033 H       
  32 H32           -0.3605     5.0382     1.1846 H       
  33 H33           -0.9265     3.6168     2.0943 H       
@<TRIPOS>BOND
   1    1    2 am
   2    1    3 2
   3    1    4 1
   4    2    5 1
   5    2   20 1
   6    4   16 1
   7    5    6 ar
   8    5   10 ar
   9    6    7 ar
  10    6   11 1
  11    7    8 ar
  12    7   21 1
  13    8    9 ar
  14    8   12 1
  15    9   10 ar
  16    9   22 1
  17   10   23 1
  18   12   13 1
  19   13   14 1
  20   13   15 1
  21   13   24 1
  22   16   17 1
  23   16   19 1
  24   16   18 1
  25   17   25 1
  26   17   26 1
  27   17   27 1
  28   18   28 1
  29   18   29 1
  30   18   30 1
  31   19   31 1
  32   19   32 1
  33   19   33 1

#	End of record

