#	Name: ASD00069467
#	Creating user name:	WinNT
#	Creation time:	15. 06. 2019 18:29

#	Modifying user name:	WinNT
#	Modification time:	15. 06. 2019 18:29

#	Program:	/corina/corina34_cracker 3.40 0067  02.08.2006

@<TRIPOS>MOLECULE
ASD00069467
  51   54    0    0    0
SMALL
NO_CHARGES


@<TRIPOS>ATOM
   1 C1            -0.0283     1.3842     0.0131 C.ar    
   2 C2            -0.0172     0.0024     0.0167 C.ar    
   3 C3             1.1674     2.0885     0.0133 C.ar    
   4 C4             2.3784     1.3984     0.0171 C.ar    
   5 C5             2.3812     0.0095     0.0206 C.ar    
   6 C6             1.1837    -0.6840     0.0204 C.ar    
   7 N7             3.5888     2.1034     0.0169 N.3     
   8 C8             4.3868     1.7794     1.2062 C.3     
   9 C9             5.6295     2.6717     1.2470 C.3     
  10 C10            6.4558     2.4459    -0.0221 C.3     
  11 C11            5.5870     2.7438    -1.2472 C.3     
  12 C12            4.3456     1.8494    -1.2157 C.3     
  13 C13            7.6680     3.3795    -0.0157 C.3     
  14 N14            8.5231     3.0795    -1.1719 N.3     
  15 F15            3.5523    -0.6641     0.0238 F       
  16 N16            1.1573     3.4889     0.0093 N.am    
  17 C17            0.1865     4.1539    -0.6477 C.2     
  18 O18           -0.6206     3.5425    -1.3215 O.2     
  19 C19            0.1029     5.6223    -0.5497 C.2     
  20 N20            0.9127     6.3929     0.1429 N.2     
  21 N21           -0.8259     6.4120    -1.1684 N.pl3   
  22 C22           -0.5593     7.6926    -0.8250 C.2     
  23 C23            0.5325     7.6679    -0.0030 C.2     
  24 C24            1.1827     8.8484     0.6189 C.ar    
  25 C25            2.2989     8.7004     1.4457 C.ar    
  26 N26            2.8474     9.7784     1.9794 N.ar    
  27 C27            2.3556    10.9780     1.7409 C.ar    
  28 N28            1.3040    11.1616     0.9674 N.ar    
  29 C29            0.6988    10.1385     0.3889 C.ar    
  30 H30           -0.9681     1.9163     0.0057 H       
  31 H31           -0.9491    -0.5434     0.0169 H       
  32 H32            1.1867    -1.7640     0.0232 H       
  33 H33            3.7889     1.9482     2.1018 H       
  34 H34            4.6917     0.7337     1.1651 H       
  35 H35            5.3253     3.7169     1.3021 H       
  36 H36            6.2295     2.4202     2.1216 H       
  37 H37            6.7929     1.4100    -0.0577 H       
  38 H38            5.2821     3.7901    -1.2314 H       
  39 H39            6.1567     2.5437    -2.1547 H       
  40 H40            4.6507     0.8034    -1.2454 H       
  41 H41            3.7177     2.0691    -2.0792 H       
  42 H42            7.3300     4.4142    -0.0725 H       
  43 H43            8.2351     3.2324     0.9035 H       
  44 H44            8.0025     3.1460    -2.0337 H       
  45 H45            9.3313     3.6833    -1.1902 H       
  46 H46            1.8490     3.9802     0.4794 H       
  47 H47           -1.5434     6.1097    -1.7470 H       
  48 H48           -1.1039     8.5694    -1.1430 H       
  49 H49            2.7072     7.7208     1.6460 H       
  50 H50            2.8287    11.8369     2.1934 H       
  51 H51           -0.1621    10.2968    -0.2438 H       
@<TRIPOS>BOND
   1    1    2 ar
   2    1    3 ar
   3    1   30 1
   4    2    6 ar
   5    2   31 1
   6    3    4 ar
   7    3   16 1
   8    4    5 ar
   9    4    7 1
  10    5    6 ar
  11    5   15 1
  12    6   32 1
  13    7    8 1
  14    7   12 1
  15    8    9 1
  16    8   33 1
  17    8   34 1
  18    9   10 1
  19    9   35 1
  20    9   36 1
  21   10   11 1
  22   10   13 1
  23   10   37 1
  24   11   12 1
  25   11   38 1
  26   11   39 1
  27   12   40 1
  28   12   41 1
  29   13   14 1
  30   13   42 1
  31   13   43 1
  32   14   44 1
  33   14   45 1
  34   16   17 am
  35   16   46 1
  36   17   18 2
  37   17   19 1
  38   19   20 2
  39   19   21 1
  40   20   23 1
  41   21   22 1
  42   21   47 1
  43   22   23 2
  44   22   48 1
  45   23   24 1
  46   24   25 ar
  47   24   29 ar
  48   25   26 ar
  49   25   49 1
  50   26   27 ar
  51   27   28 ar
  52   27   50 1
  53   28   29 ar
  54   29   51 1

#	End of record

