#	Name: ASD03082217
#	Creating user name:	WinNT
#	Creation time:	15. 06. 2019 20:27

#	Modifying user name:	WinNT
#	Modification time:	15. 06. 2019 20:27

#	Program:	/corina/corina34_cracker 3.40 0067  02.08.2006

@<TRIPOS>MOLECULE
ASD03082217
  48   51    0    0    0
SMALL
NO_CHARGES


@<TRIPOS>ATOM
   1 N1             1.6017     1.7809     0.7026 N.pl3   
   2 N2             1.2591     0.4244     0.8232 N.2     
   3 C3             2.3788    -0.2598     0.7629 C.2     
   4 N4             3.3981     0.5869     0.6122 N.2     
   5 C5             2.9464     1.8243     0.5738 C.2     
   6 N6             2.4848    -1.6496     0.8443 N.pl3   
   7 C7             3.7252    -2.2685     0.6578 C.ar    
   8 C8             3.9795    -3.5054     1.2366 C.ar    
   9 C9             5.2048    -4.1145     1.0512 C.ar    
  10 C10            6.1798    -3.4932     0.2888 C.ar    
  11 C11            5.9286    -2.2604    -0.2891 C.ar    
  12 C12            4.7024    -1.6500    -0.1111 C.ar    
  13 C13            5.4814    -5.4562     1.6793 C.3     
  14 F14            4.3555    -5.8769     2.3952 F       
  15 F15            5.7727    -6.3887     0.6780 F       
  16 F16            6.5728    -5.3483     2.5478 F       
  17 C17            5.8533     4.2174     0.5927 C.ar    
  18 C18            5.1212     3.0485     0.7567 C.ar    
  19 C19            3.7671     3.0462     0.4169 C.ar    
  20 C20            3.2058     4.2306    -0.0770 C.ar    
  21 C21            4.0025     5.3476    -0.2092 C.ar    
  22 N22            5.2797     5.3145     0.1218 N.ar    
  23 C23            0.6832     2.9222     0.7089 C.3     
  24 C24            0.0856     3.1035    -0.6879 C.3     
  25 F25            7.3781    -4.0908     0.1090 F       
  26 O26           -0.3664     2.6837     1.6488 O.3     
  27 N27            7.2016     4.2378     0.9320 N.pl3   
  28 C28            7.8731     3.0012     1.3394 C.3     
  29 C29            9.3732     2.8871     1.0608 C.3     
  30 C30            8.8743     3.0880     2.4931 C.3     
  31 H31            1.6982    -2.1859     1.0301 H       
  32 H32            3.2195    -3.9901     1.8315 H       
  33 H33            6.6906    -1.7775    -0.8830 H       
  34 H34            4.5051    -0.6905    -0.5660 H       
  35 H35            5.5921     2.1555     1.1406 H       
  36 H36            2.1618     4.2680    -0.3511 H       
  37 H37            3.5752     6.2637    -0.5895 H       
  38 H38            1.2262     3.8240     0.9916 H       
  39 H39           -0.4574     2.2016    -0.9706 H       
  40 H40           -0.5978     3.9526    -0.6833 H       
  41 H41            0.8862     3.2853    -1.4048 H       
  42 H42           -0.8927     1.8949     1.4590 H       
  43 H43            7.6975     5.0708     0.8989 H       
  44 H44            7.2757     2.0931     1.2584 H       
  45 H45            9.7627     1.9039     0.7968 H       
  46 H46            9.8604     3.7322     0.5743 H       
  47 H47            9.0333     4.0653     2.9490 H       
  48 H48            8.9356     2.2370     3.1714 H       
@<TRIPOS>BOND
   1    1    2 1
   2    1    5 1
   3    1   23 1
   4    2    3 2
   5    3    4 1
   6    3    6 1
   7    4    5 2
   8    5   19 1
   9    6    7 1
  10    6   31 1
  11    7    8 ar
  12    7   12 ar
  13    8    9 ar
  14    8   32 1
  15    9   10 ar
  16    9   13 1
  17   10   11 ar
  18   10   25 1
  19   11   12 ar
  20   11   33 1
  21   12   34 1
  22   13   14 1
  23   13   15 1
  24   13   16 1
  25   17   18 ar
  26   17   22 ar
  27   17   27 1
  28   18   19 ar
  29   18   35 1
  30   19   20 ar
  31   20   21 ar
  32   20   36 1
  33   21   22 ar
  34   21   37 1
  35   23   24 1
  36   23   26 1
  37   23   38 1
  38   24   39 1
  39   24   40 1
  40   24   41 1
  41   26   42 1
  42   27   28 1
  43   27   43 1
  44   28   29 1
  45   28   30 1
  46   28   44 1
  47   29   30 1
  48   29   45 1
  49   29   46 1
  50   30   47 1
  51   30   48 1

#	End of record

