#	Name: ASD01148087
#	Creating user name:	WinNT
#	Creation time:	15. 06. 2019 19:02

#	Modifying user name:	WinNT
#	Modification time:	15. 06. 2019 19:02

#	Program:	/corina/corina34_cracker 3.40 0067  02.08.2006

@<TRIPOS>MOLECULE
ASD01148087
  44   47    0    0    0
SMALL
NO_CHARGES


@<TRIPOS>ATOM
   1 C1            -0.0168     1.3875     0.0097 C.ar    
   2 C2             0.0021    -0.0041     0.0020 C.ar    
   3 C3             1.2285    -0.6616    -0.0133 C.ar    
   4 C4             2.3921     0.1066    -0.0203 C.ar    
   5 C5             2.2925     1.4840    -0.0120 C.ar    
   6 N6             1.1167     2.0789     0.0026 N.ar    
   7 C7            -2.6116     4.1402     0.0364 C.ar    
   8 C8            -1.3647     3.5140     0.0276 C.ar    
   9 C9            -1.3141     2.1042     0.0197 C.ar    
  10 C10           -2.5217     1.4041     0.0211 C.ar    
  11 C11           -3.7085     2.1095     0.0301 C.ar    
  12 N12           -3.7199     3.4295     0.0374 N.ar    
  13 C13           -0.1596     4.2875     0.0261 C.1     
  14 N14            0.7964     4.9011     0.0248 N.1     
  15 C15            0.6322    -2.9026     0.8218 C.2     
  16 N16            0.9206    -4.1376     0.5324 N.2     
  17 C17            1.7848    -4.1730    -0.5149 C.ar    
  18 C18            2.0360    -2.8409    -0.8854 C.ar    
  19 N19            1.2922    -2.0583    -0.0209 N.pl3   
  20 C20            2.4046    -5.2101    -1.2164 C.ar    
  21 C21            3.2528    -4.9178    -2.2604 C.ar    
  22 C22            3.4974    -3.6009    -2.6220 C.ar    
  23 C23            2.8938    -2.5653    -1.9402 C.ar    
  24 C24            3.9213    -6.0371    -3.0162 C.3     
  25 C25            4.1611    -5.6031    -4.4636 C.3     
  26 C26            5.2604    -6.3702    -2.3552 C.3     
  27 O27            3.0808    -7.1925    -2.9984 O.3     
  28 H28           -0.9208    -0.5650     0.0082 H       
  29 H29            3.3609    -0.3705    -0.0318 H       
  30 H30            3.1915     2.0825    -0.0170 H       
  31 H31           -2.6682     5.2186     0.0471 H       
  32 H32           -2.5276     0.3241     0.0149 H       
  33 H33           -4.6449     1.5714     0.0309 H       
  34 H34           -0.0360    -2.5917     1.6113 H       
  35 H35            2.2192    -6.2376    -0.9403 H       
  36 H36            4.1653    -3.3853    -3.4429 H       
  37 H37            3.0881    -1.5424    -2.2269 H       
  38 H38            4.8023    -4.7217    -4.4772 H       
  39 H39            4.6447    -6.4127    -5.0103 H       
  40 H40            3.2072    -5.3657    -4.9345 H       
  41 H41            5.0896    -6.6794    -1.3240 H       
  42 H42            5.7439    -7.1798    -2.9019 H       
  43 H43            5.9015    -5.4889    -2.3688 H       
  44 H44            2.2131    -7.0540    -3.4022 H       
@<TRIPOS>BOND
   1    1    2 ar
   2    1    6 ar
   3    1    9 1
   4    2    3 ar
   5    2   28 1
   6    3    4 ar
   7    3   19 1
   8    4    5 ar
   9    4   29 1
  10    5    6 ar
  11    5   30 1
  12    7    8 ar
  13    7   12 ar
  14    7   31 1
  15    8    9 ar
  16    8   13 1
  17    9   10 ar
  18   10   11 ar
  19   10   32 1
  20   11   12 ar
  21   11   33 1
  22   13   14 3
  23   15   16 2
  24   15   19 1
  25   15   34 1
  26   16   17 1
  27   17   18 ar
  28   17   20 ar
  29   18   19 1
  30   18   23 ar
  31   20   21 ar
  32   20   35 1
  33   21   22 ar
  34   21   24 1
  35   22   23 ar
  36   22   36 1
  37   23   37 1
  38   24   25 1
  39   24   26 1
  40   24   27 1
  41   25   38 1
  42   25   39 1
  43   25   40 1
  44   26   41 1
  45   26   42 1
  46   26   43 1
  47   27   44 1

#	End of record

