#	Name: ASD01908280
#	Creating user name:	WinNT
#	Creation time:	15. 06. 2019 19:54

#	Modifying user name:	WinNT
#	Modification time:	15. 06. 2019 19:54

#	Program:	/corina/corina34_cracker 3.40 0067  02.08.2006

@<TRIPOS>MOLECULE
ASD01908280
  39   41    0    0    0
SMALL
NO_CHARGES


@<TRIPOS>ATOM
   1 C1             2.0088     1.5097    -0.7445 C.2     
   2 C2             2.0401     0.0441    -0.7706 C.2     
   3 O3             2.8443    -0.5349    -1.4772 O.2     
   4 N4             1.1783    -0.6620    -0.0122 N.am    
   5 C5             1.1416    -2.0564    -0.1097 C.ar    
   6 C6             2.3126    -2.7687    -0.3270 C.ar    
   7 C7             2.2721    -4.1510    -0.4231 C.ar    
   8 C8             1.0619    -4.8190    -0.3018 C.ar    
   9 C9            -0.1035    -4.1080    -0.0853 C.ar    
  10 C10           -0.0666    -2.7311     0.0167 C.ar    
  11 O11            1.1727     2.2718    -0.0095 O.3     
  12 C12            1.4325     3.5655    -0.2393 C.2     
  13 C13            2.4448     3.6541    -1.1302 C.2     
  14 C14            2.8248     2.3426    -1.4554 C.2     
  15 O15            3.4169    -4.8515    -0.6363 O.3     
  16 C16            3.3008    -6.2731    -0.7246 C.3     
  17 C17            4.6621    -6.8746    -0.9611 C.2     
  18 C18            4.8098    -8.3317    -1.0893 C.ar    
  19 O19            5.6359    -6.1567    -1.0458 O.2     
  20 C20            6.0725    -8.8935    -1.3090 C.ar    
  21 C21            6.2039   -10.2595    -1.4281 C.ar    
  22 C22            5.0879   -11.0777    -1.3313 C.ar    
  23 C23            3.8333   -10.5273    -1.1140 C.ar    
  24 C24            3.6890    -9.1633    -0.9863 C.ar    
  25 F25            5.2235   -12.4167    -1.4495 F       
  26 H26            0.5834    -0.2029     0.6012 H       
  27 H27            3.2535    -2.2472    -0.4215 H       
  28 H28            1.0304    -5.8959    -0.3770 H       
  29 H29           -1.0441    -4.6304     0.0084 H       
  30 H30           -0.9779    -2.1782     0.1907 H       
  31 H31            0.9174     4.4004     0.2124 H       
  32 H32            2.8822     4.5631    -1.5159 H       
  33 H33            3.6065     2.0491    -2.1404 H       
  34 H34            2.8883    -6.6624     0.2062 H       
  35 H35            2.6400    -6.5330    -1.5516 H       
  36 H36            6.9420    -8.2574    -1.3853 H       
  37 H37            7.1778   -10.6943    -1.5977 H       
  38 H38            2.9685   -11.1699    -1.0399 H       
  39 H39            2.7117    -8.7360    -0.8172 H       
@<TRIPOS>BOND
   1    1    2 1
   2    1   11 1
   3    1   14 2
   4    2    3 2
   5    2    4 am
   6    4    5 1
   7    4   26 1
   8    5    6 ar
   9    5   10 ar
  10    6    7 ar
  11    6   27 1
  12    7    8 ar
  13    7   15 1
  14    8    9 ar
  15    8   28 1
  16    9   10 ar
  17    9   29 1
  18   10   30 1
  19   11   12 1
  20   12   13 2
  21   12   31 1
  22   13   14 1
  23   13   32 1
  24   14   33 1
  25   15   16 1
  26   16   17 1
  27   16   34 1
  28   16   35 1
  29   17   18 1
  30   17   19 2
  31   18   20 ar
  32   18   24 ar
  33   20   21 ar
  34   20   36 1
  35   21   22 ar
  36   21   37 1
  37   22   23 ar
  38   22   25 1
  39   23   24 ar
  40   23   38 1
  41   24   39 1

#	End of record

