#	Name: ASD01150851
#	Creating user name:	WinNT
#	Creation time:	15. 06. 2019 19:05

#	Modifying user name:	WinNT
#	Modification time:	15. 06. 2019 19:05

#	Program:	/corina/corina34_cracker 3.40 0067  02.08.2006

@<TRIPOS>MOLECULE
ASD01150851
  46   48    0    0    0
SMALL
NO_CHARGES


@<TRIPOS>ATOM
   1 C1            -0.0169     1.3922     0.0097 C.ar    
   2 C2             0.0021    -0.0041     0.0020 C.ar    
   3 C3             1.2238    -0.6801    -0.0133 C.ar    
   4 C4             2.4035     0.0338    -0.0207 C.ar    
   5 C5             2.3782     1.4187    -0.0130 C.ar    
   6 C6             1.1694     2.0950     0.0021 C.ar    
   7 C7            -1.2654    -0.7630     0.0105 C.2     
   8 N8            -1.2440    -2.1106     0.0031 N.am    
   9 O9            -2.3276    -0.1721     0.0243 O.2     
  10 C10           -2.4365    -2.8247     0.0111 C.2     
  11 N11           -3.6658    -2.3036     0.0256 N.2     
  12 C12           -4.5641    -3.2673     0.0296 C.2     
  13 N13           -3.9338    -4.4701     0.0174 N.pl3   
  14 C14           -2.5627    -4.2082    -0.0006 C.2     
  15 S15           -6.3103    -3.0323     0.0486 S.3     
  16 C16           -6.3840    -1.2238     0.0584 C.3     
  17 C17           -4.5706    -5.7894     0.0171 C.3     
  18 C18           -1.5187    -5.1549    -0.0177 C.2     
  19 O19           -1.8041    -6.4749    -0.0175 O.3     
  20 O20           -0.3593    -4.7825    -0.0325 O.2     
  21 C21           -0.6967    -7.3780    -0.0353 C.3     
  22 C22           -1.2131    -8.8182    -0.0324 C.3     
  23 Cl23           3.8676     2.3106    -0.0219 Cl      
  24 C24           -4.8023    -6.2350    -1.4038 C.2     
  25 S25           -6.2521    -5.9096    -2.3449 S.3     
  26 C26           -5.5843    -6.7690    -3.7265 C.2     
  27 C27           -4.3704    -7.2305    -3.4221 C.2     
  28 C28           -3.9368    -6.9316    -2.1420 C.2     
  29 H29           -0.9588     1.9205     0.0170 H       
  30 H30            1.2447    -1.7599    -0.0189 H       
  31 H31            3.3490    -0.4879    -0.0322 H       
  32 H32            1.1561     3.1749     0.0081 H       
  33 H33           -0.3964    -2.5822    -0.0079 H       
  34 H34           -5.8945    -0.8354    -0.8347 H       
  35 H35           -7.4255    -0.9026     0.0706 H       
  36 H36           -5.8763    -0.8443     0.9451 H       
  37 H37           -3.9223    -6.5059     0.5214 H       
  38 H38           -5.5252    -5.7322     0.5401 H       
  39 H39           -0.1027    -7.2069    -0.9331 H       
  40 H40           -0.0783    -7.2120     0.8467 H       
  41 H41           -0.3685    -9.5071    -0.0459 H       
  42 H42           -1.8072    -8.9894     0.8654 H       
  43 H43           -1.8316    -8.9843    -0.9144 H       
  44 H44           -6.0813    -6.9029    -4.6760 H       
  45 H45           -3.7697    -7.7916    -4.1227 H       
  46 H46           -2.9735    -7.2446    -1.7670 H       
@<TRIPOS>BOND
   1    1    2 ar
   2    1    6 ar
   3    1   29 1
   4    2    3 ar
   5    2    7 1
   6    3    4 ar
   7    3   30 1
   8    4    5 ar
   9    4   31 1
  10    5    6 ar
  11    5   23 1
  12    6   32 1
  13    7    8 am
  14    7    9 2
  15    8   10 1
  16    8   33 1
  17   10   11 1
  18   10   14 2
  19   11   12 2
  20   12   13 1
  21   12   15 1
  22   13   14 1
  23   13   17 1
  24   14   18 1
  25   15   16 1
  26   16   34 1
  27   16   35 1
  28   16   36 1
  29   17   24 1
  30   17   37 1
  31   17   38 1
  32   18   19 1
  33   18   20 2
  34   19   21 1
  35   21   22 1
  36   21   39 1
  37   21   40 1
  38   22   41 1
  39   22   42 1
  40   22   43 1
  41   24   25 1
  42   24   28 2
  43   25   26 1
  44   26   27 2
  45   26   44 1
  46   27   28 1
  47   27   45 1
  48   28   46 1

#	End of record

