#	Name: ASD01883908
#	Creating user name:	WinNT
#	Creation time:	15. 06. 2019 19:47

#	Modifying user name:	WinNT
#	Modification time:	15. 06. 2019 19:47

#	Program:	/corina/corina34_cracker 3.40 0067  02.08.2006

@<TRIPOS>MOLECULE
ASD01883908
  45   48    0    0    0
SMALL
NO_CHARGES


@<TRIPOS>ATOM
   1 C1             0.0078     1.3067     0.1021 C.ar    
   2 C2             0.0462    -0.0749     0.0824 C.ar    
   3 C3             1.2615    -0.7320     0.0357 C.ar    
   4 C4             2.4384    -0.0074     0.0082 C.ar    
   5 C5             2.4000     1.3742     0.0269 C.ar    
   6 C6             1.1848     2.0313     0.0750 C.ar    
   7 C7             3.6831     2.1641    -0.0021 C.3     
   8 C8             3.3759     3.6230    -0.3479 C.3     
   9 C9             4.6855     4.4153    -0.4105 C.3     
  10 N10            5.4086     4.2347     0.8557 N.pl3   
  11 C11            5.6767     2.8693     1.3275 C.3     
  12 C12            4.3560     2.0943     1.3706 C.3     
  13 F13            4.5397     1.6264    -0.9687 F       
  14 C14            5.8318     5.3358     1.5938 C.2     
  15 C15            6.3843     5.1625     2.8338 C.2     
  16 C16            6.8046     6.2899     3.5597 C.2     
  17 N17            6.6563     7.5440     3.0187 N.pl3   
  18 C18            6.1035     7.7060     1.7818 C.2     
  19 C19            5.6993     6.6386     1.0658 C.2     
  20 N20            7.3617     6.4498     4.7505 N.2     
  21 N21            7.5600     7.7024     4.9677 N.2     
  22 C22            7.1501     8.4109     3.9488 C.2     
  23 C23            7.2122     9.9115     3.8242 C.3     
  24 C24            8.5418    10.3155     3.1840 C.3     
  25 F25            8.6426     9.7375     1.9140 F       
  26 F26            8.5994    11.7085     3.0683 F       
  27 F27            9.5992     9.8699     3.9844 F       
  28 H28           -0.9418     1.8202     0.1340 H       
  29 H29           -0.8733    -0.6410     0.1040 H       
  30 H30            1.2915    -1.8115     0.0211 H       
  31 H31            3.3879    -0.5208    -0.0276 H       
  32 H32            1.1547     3.1108     0.0893 H       
  33 H33            2.8757     3.6701    -1.3152 H       
  34 H34            2.7287     4.0500     0.4181 H       
  35 H35            5.2959     4.0478    -1.2355 H       
  36 H36            4.4661     5.4727    -0.5584 H       
  37 H37            6.3678     2.3757     0.6443 H       
  38 H38            6.1112     2.9066     2.3264 H       
  39 H39            3.6995     2.5356     2.1205 H       
  40 H40            4.5532     1.0533     1.6265 H       
  41 H41            6.4956     4.1719     3.2493 H       
  42 H42            5.9936     8.6987     1.3708 H       
  43 H43            5.2633     6.7808     0.0880 H       
  44 H44            6.3883    10.2586     3.2006 H       
  45 H45            7.1337    10.3618     4.8137 H       
@<TRIPOS>BOND
   1    1    2 ar
   2    1    6 ar
   3    1   28 1
   4    2    3 ar
   5    2   29 1
   6    3    4 ar
   7    3   30 1
   8    4    5 ar
   9    4   31 1
  10    5    6 ar
  11    5    7 1
  12    6   32 1
  13    7    8 1
  14    7   13 1
  15    7   12 1
  16    8    9 1
  17    8   33 1
  18    8   34 1
  19    9   10 1
  20    9   35 1
  21    9   36 1
  22   10   11 1
  23   10   14 1
  24   11   12 1
  25   11   37 1
  26   11   38 1
  27   12   39 1
  28   12   40 1
  29   14   15 2
  30   14   19 1
  31   15   16 1
  32   15   41 1
  33   16   17 1
  34   16   20 2
  35   17   18 1
  36   17   22 1
  37   18   19 2
  38   18   42 1
  39   19   43 1
  40   20   21 1
  41   21   22 2
  42   22   23 1
  43   23   24 1
  44   23   44 1
  45   23   45 1
  46   24   25 1
  47   24   26 1
  48   24   27 1

#	End of record

