#	Name: ASD01811692
#	Creating user name:	WinNT
#	Creation time:	15. 06. 2019 19:27

#	Modifying user name:	WinNT
#	Modification time:	15. 06. 2019 19:27

#	Program:	/corina/corina34_cracker 3.40 0067  02.08.2006

@<TRIPOS>MOLECULE
ASD01811692
  55   59    0    0    0
SMALL
NO_CHARGES


@<TRIPOS>ATOM
   1 C1            -0.0167     1.3826     0.0096 C.ar    
   2 C2             0.0021    -0.0041     0.0020 C.ar    
   3 C3            -1.1845    -0.7153     0.0095 C.ar    
   4 C4            -2.3944    -0.0527     0.0247 C.ar    
   5 C5            -2.4229     1.3432     0.0329 C.ar    
   6 C6            -1.2204     2.0532     0.0305 C.ar    
   7 F7             1.1434     2.0750     0.0023 F       
   8 C8             1.3182    -0.7379    -0.0150 C.3     
   9 C9            -1.1553    -2.2220     0.0006 C.3     
  10 C10           -1.0079    -2.7299     1.4118 C.ar    
  11 C11           -2.1329    -2.9863     2.1739 C.ar    
  12 C12           -2.0011    -3.4523     3.4674 C.ar    
  13 C13           -0.7374    -3.6632     4.0023 C.ar    
  14 C14            0.3903    -3.4049     3.2347 C.ar    
  15 C15            0.2519    -2.9440     1.9400 C.ar    
  16 N16           -0.6003    -4.1357     5.3150 N.pl3   
  17 N17           -1.6467    -4.4361     6.1966 N.2     
  18 C18           -1.1260    -4.8488     7.3241 C.2     
  19 C19            0.2673    -4.8248     7.1979 C.2     
  20 C20            0.5654    -4.3877     5.9524 C.2     
  21 C21           -3.5336     2.3145     0.0494 C.2     
  22 N22           -3.0546     3.5704     0.0524 N.am    
  23 C23           -1.5883     3.5159     0.0415 C.3     
  24 O24           -4.7131     2.0208     0.0586 O.2     
  25 C25           -3.8630     4.7921     0.0675 C.3     
  26 C26           -4.7350     4.8133     1.3267 C.3     
  27 C27           -5.6313     6.0550     1.2929 C.3     
  28 C28           -6.4650     6.0381     0.0090 C.3     
  29 O29           -5.5938     5.9872    -1.1226 O.3     
  30 C30           -4.7650     4.8240    -1.1690 C.3     
  31 O31           -3.9001     4.8578     2.4856 O.3     
  32 H32           -3.3178    -0.6127     0.0298 H       
  33 H33            1.6458    -0.9203     1.0085 H       
  34 H34            1.1970    -1.6894    -0.5328 H       
  35 H35            2.0638    -0.1348    -0.5330 H       
  36 H36           -2.0836    -2.6009    -0.4268 H       
  37 H37           -0.3124    -2.5655    -0.5990 H       
  38 H38           -3.1157    -2.8217     1.7573 H       
  39 H39           -2.8801    -3.6520     4.0622 H       
  40 H40            1.3746    -3.5678     3.6482 H       
  41 H41            1.1288    -2.7429     1.3424 H       
  42 H42           -1.6769    -5.1548     8.2012 H       
  43 H43            0.9792    -5.1087     7.9589 H       
  44 H44            1.5563    -4.2579     5.5430 H       
  45 H45           -1.1889     3.9963     0.9347 H       
  46 H46           -1.2019     4.0055    -0.8524 H       
  47 H47           -3.2081     5.6634     0.0632 H       
  48 H48           -5.3546     3.9170     1.3563 H       
  49 H49           -6.2944     6.0493     2.1579 H       
  50 H50           -5.0121     6.9519     1.3133 H       
  51 H51           -7.1135     5.1620     0.0082 H       
  52 H52           -7.0736     6.9410    -0.0411 H       
  53 H53           -4.1490     4.8522    -2.0678 H       
  54 H54           -5.3913     3.9319    -1.1852 H       
  55 H55           -4.3871     4.8733     3.3209 H       
@<TRIPOS>BOND
   1    1    2 ar
   2    1    7 1
   3    1    6 ar
   4    2    3 ar
   5    2    8 1
   6    3    4 ar
   7    3    9 1
   8    4    5 ar
   9    4   32 1
  10    5    6 ar
  11    5   21 1
  12    6   23 1
  13    8   33 1
  14    8   34 1
  15    8   35 1
  16    9   10 1
  17    9   36 1
  18    9   37 1
  19   10   11 ar
  20   10   15 ar
  21   11   12 ar
  22   11   38 1
  23   12   13 ar
  24   12   39 1
  25   13   14 ar
  26   13   16 1
  27   14   15 ar
  28   14   40 1
  29   15   41 1
  30   16   17 1
  31   16   20 1
  32   17   18 2
  33   18   19 1
  34   18   42 1
  35   19   20 2
  36   19   43 1
  37   20   44 1
  38   21   22 am
  39   21   24 2
  40   22   23 1
  41   22   25 1
  42   23   45 1
  43   23   46 1
  44   25   26 1
  45   25   30 1
  46   25   47 1
  47   26   27 1
  48   26   31 1
  49   26   48 1
  50   27   28 1
  51   27   49 1
  52   27   50 1
  53   28   29 1
  54   28   51 1
  55   28   52 1
  56   29   30 1
  57   30   53 1
  58   30   54 1
  59   31   55 1

#	End of record

