#	Name: ASD03240498
#	Creating user name:	WinNT
#	Creation time:	15. 06. 2019 20:35

#	Modifying user name:	WinNT
#	Modification time:	15. 06. 2019 20:35

#	Program:	/corina/corina34_cracker 3.40 0067  02.08.2006

@<TRIPOS>MOLECULE
ASD03240498
  37   39    0    0    0
SMALL
NO_CHARGES


@<TRIPOS>ATOM
   1 C1             1.1252    -0.1852    -0.2402 C.ar    
   2 C2            -0.1858     0.2398    -0.1225 C.ar    
   3 C3             2.1442     0.7378    -0.3622 C.ar    
   4 C4             1.8503     2.0994    -0.3666 C.ar    
   5 C5             0.5283     2.5220    -0.2477 C.ar    
   6 C6            -0.4832     1.5906    -0.1268 C.ar    
   7 C7             2.9424     3.0968    -0.4971 C.2     
   8 C8             2.7973     4.4533    -0.5158 C.2     
   9 N9             4.0258     4.9931    -0.6480 N.pl3   
  10 N10            4.9574     3.9500    -0.7130 N.2     
  11 C11            4.3170     2.8149    -0.6178 C.2     
  12 C12           -1.2942    -0.7726     0.0103 C.3     
  13 C13           -0.9651    -1.7431     1.1464 C.3     
  14 C14           -1.4325    -1.5383    -1.2802 C.ar    
  15 C15           -2.5574    -1.3707    -2.0660 C.ar    
  16 C16           -2.6848    -2.0727    -3.2498 C.ar    
  17 C17           -1.6862    -2.9434    -3.6482 C.ar    
  18 C18           -0.5606    -3.1108    -2.8614 C.ar    
  19 C19           -0.4317    -2.4039    -1.6806 C.ar    
  20 Cl20          -1.8457    -3.8260    -5.1346 Cl      
  21 N21           -0.9483    -1.0155     2.4225 N.3     
  22 H22            1.3523    -1.2410    -0.2322 H       
  23 H23            3.1675     0.4049    -0.4538 H       
  24 H24            0.2951     3.5765    -0.2506 H       
  25 H25           -1.5085     1.9171    -0.0349 H       
  26 H26            1.8670     4.9964    -0.4388 H       
  27 H27            4.2290     5.9406    -0.6909 H       
  28 H28            4.7634     1.8316    -0.6358 H       
  29 H29           -2.2304    -0.2596     0.2305 H       
  30 H30           -1.7213    -2.5271     1.1851 H       
  31 H31            0.0132    -2.1903     0.9703 H       
  32 H32           -3.3371    -0.6912    -1.7547 H       
  33 H33           -3.5639    -1.9419    -3.8634 H       
  34 H34            0.2193    -3.7903    -3.1719 H       
  35 H35            0.4469    -2.5345    -1.0663 H       
  36 H36           -0.7330    -1.6351     3.1892 H       
  37 H37           -0.3006    -0.2425     2.3895 H       
@<TRIPOS>BOND
   1    1    2 ar
   2    1    3 ar
   3    1   22 1
   4    2   12 1
   5    2    6 ar
   6    3    4 ar
   7    3   23 1
   8    4    5 ar
   9    4    7 1
  10    5    6 ar
  11    5   24 1
  12    6   25 1
  13    7    8 2
  14    7   11 1
  15    8    9 1
  16    8   26 1
  17    9   10 1
  18    9   27 1
  19   10   11 2
  20   11   28 1
  21   12   13 1
  22   12   14 1
  23   12   29 1
  24   13   21 1
  25   13   30 1
  26   13   31 1
  27   14   15 ar
  28   14   19 ar
  29   15   16 ar
  30   15   32 1
  31   16   17 ar
  32   16   33 1
  33   17   18 ar
  34   17   20 1
  35   18   19 ar
  36   18   34 1
  37   19   35 1
  38   21   36 1
  39   21   37 1

#	End of record

