#	Name: ASD01917757
#	Creating user name:	WinNT
#	Creation time:	15. 06. 2019 20:10

#	Modifying user name:	WinNT
#	Modification time:	15. 06. 2019 20:10

#	Program:	/corina/corina34_cracker 3.40 0067  02.08.2006

@<TRIPOS>MOLECULE
ASD01917757
  43   46    0    0    0
SMALL
NO_CHARGES


@<TRIPOS>ATOM
   1 C1            -0.5801     1.8273     1.1136 C.2     
   2 C2            -0.3607     0.4997     1.1526 C.2     
   3 C3            -1.4086    -0.5248     0.7454 C.3     
   4 C4            -2.7901     0.1333     0.7722 C.3     
   5 N5            -2.7185     1.4311     0.0840 N.am    
   6 C6            -1.8732     2.4797     0.6814 C.3     
   7 C7            -3.4039     1.6536    -1.0549 C.2     
   8 O8            -4.0158     0.7457    -1.5834 O.2     
   9 C9            -3.4117     3.0005    -1.6610 C.ar    
  10 S10            0.8748     2.6545     1.6518 S.3     
  11 C11            1.6515     1.1503     1.8877 C.2     
  12 N12            0.8557     0.1877     1.5786 N.2     
  13 C13            3.0634     0.9767     2.3850 C.3     
  14 O14            3.9609     0.9564     1.2732 O.3     
  15 C15            5.2829     0.8058     1.5502 C.ar    
  16 C16            6.2100     0.7774     0.5186 C.ar    
  17 C17            7.5532     0.6242     0.8027 C.ar    
  18 C18            7.9738     0.4991     2.1138 C.ar    
  19 C19            7.0517     0.5266     3.1437 C.ar    
  20 C20            5.7080     0.6858     2.8653 C.ar    
  21 C21           -3.5644     4.1311    -0.8562 C.ar    
  22 C22           -3.5708     5.3858    -1.4283 C.ar    
  23 C23           -3.4269     5.5278    -2.7976 C.ar    
  24 C24           -3.2751     4.4144    -3.6030 C.ar    
  25 C25           -3.2604     3.1500    -3.0433 C.ar    
  26 F26           -3.1120     2.0621    -3.8305 F       
  27 H27           -1.1953    -0.8837    -0.2615 H       
  28 H28           -1.3902    -1.3619     1.4433 H       
  29 H29           -3.5097    -0.5091     0.2646 H       
  30 H30           -3.1013     0.2855     1.8056 H       
  31 H31           -2.3771     2.9144     1.5447 H       
  32 H32           -1.6669     3.2545    -0.0570 H       
  33 H33            3.3207     1.8054     3.0446 H       
  34 H34            3.1427     0.0379     2.9332 H       
  35 H35            5.8820     0.8747    -0.5058 H       
  36 H36            8.2754     0.6017    -0.0001 H       
  37 H37            9.0244     0.3794     2.3339 H       
  38 H38            7.3827     0.4280     4.1670 H       
  39 H39            4.9881     0.7073     3.6701 H       
  40 H40           -3.6776     4.0232     0.2125 H       
  41 H41           -3.6889     6.2605    -0.8059 H       
  42 H42           -3.4335     6.5134    -3.2391 H       
  43 H43           -3.1632     4.5327    -4.6706 H       
@<TRIPOS>BOND
   1    1    2 2
   2    1   10 1
   3    1    6 1
   4    2    3 1
   5    2   12 1
   6    3    4 1
   7    3   27 1
   8    3   28 1
   9    4    5 1
  10    4   29 1
  11    4   30 1
  12    5    6 1
  13    5    7 am
  14    6   31 1
  15    6   32 1
  16    7    8 2
  17    7    9 1
  18    9   21 ar
  19    9   25 ar
  20   10   11 1
  21   11   12 2
  22   11   13 1
  23   13   14 1
  24   13   33 1
  25   13   34 1
  26   14   15 1
  27   15   16 ar
  28   15   20 ar
  29   16   17 ar
  30   16   35 1
  31   17   18 ar
  32   17   36 1
  33   18   19 ar
  34   18   37 1
  35   19   20 ar
  36   19   38 1
  37   20   39 1
  38   21   22 ar
  39   21   40 1
  40   22   23 ar
  41   22   41 1
  42   23   24 ar
  43   23   42 1
  44   24   25 ar
  45   24   43 1
  46   25   26 1

#	End of record

