#	Name: ASD05143251
#	Creating user name:	WinNT
#	Creation time:	15. 06. 2019 20:57

#	Modifying user name:	WinNT
#	Modification time:	15. 06. 2019 20:57

#	Program:	/corina/corina34_cracker 3.40 0067  02.08.2006

@<TRIPOS>MOLECULE
ASD05143251
  48   50    0    0    0
SMALL
NO_CHARGES


@<TRIPOS>ATOM
   1 C1             0.3233     1.2370     0.2613 C.2     
   2 N2             0.3285    -0.0296    -0.1048 N.2     
   3 S3            -1.3049    -0.4887    -0.1966 S.3     
   4 C4            -1.9133     1.0552     0.2646 C.2     
   5 N5            -0.8500     1.8042     0.4598 N.2     
   6 N6            -3.2372     1.4267     0.4043 N.pl3   
   7 C7            -3.5596     2.6996     0.8906 C.ar    
   8 C8            -4.8838     3.0214     1.1823 C.ar    
   9 C9            -5.1967     4.2819     1.6629 C.ar    
  10 C10           -4.1964     5.2181     1.8525 C.ar    
  11 C11           -2.8827     4.8998     1.5634 C.ar    
  12 C12           -2.5611     3.6418     1.0886 C.ar    
  13 C13            1.4249    -0.8138    -0.3592 C.ar    
  14 C14            1.6173    -2.0010     0.3495 C.ar    
  15 C15            2.3501    -0.4310    -1.3318 C.ar    
  16 C16            3.4503    -1.2245    -1.5830 C.ar    
  17 C17            3.6375    -2.3976    -0.8737 C.ar    
  18 C18            2.7217    -2.7852     0.0884 C.ar    
  19 C19            1.5852     1.9905     0.4480 C.ar    
  20 C20            1.6333     3.3558     0.1679 C.ar    
  21 C21            2.7281     1.3385     0.9101 C.ar    
  22 C22            3.9003     2.0458     1.0824 C.ar    
  23 C23            3.9431     3.3991     0.7983 C.ar    
  24 C24            2.8113     4.0524     0.3442 C.ar    
  25 C25            4.8412    -3.2599    -1.1542 C.3     
  26 O26           -5.8663     2.1000     0.9951 O.3     
  27 C27           -7.2003     2.4999     1.3154 C.3     
  28 H28           -3.9430     0.8057     0.1655 H       
  29 H29           -6.2221     4.5340     1.8895 H       
  30 H30           -4.4425     6.2007     2.2270 H       
  31 H31           -2.1051     5.6342     1.7126 H       
  32 H32           -1.5339     3.3958     0.8635 H       
  33 H33            0.9032    -2.3047     1.1007 H       
  34 H34            2.2048     0.4841    -1.8867 H       
  35 H35            4.1669    -0.9295    -2.3353 H       
  36 H36            2.8737    -3.7021     0.6386 H       
  37 H37            0.7504     3.8669    -0.1867 H       
  38 H38            2.6957     0.2823     1.1329 H       
  39 H39            4.7861     1.5420     1.4402 H       
  40 H40            4.8628     3.9485     0.9351 H       
  41 H41            2.8509     5.1089     0.1237 H       
  42 H42            5.6660    -2.9527    -0.5111 H       
  43 H43            4.5950    -4.3030    -0.9560 H       
  44 H44            5.1333    -3.1475    -2.1983 H       
  45 H45           -7.2541     2.7755     2.3686 H       
  46 H46           -7.4804     3.3557     0.7011 H       
  47 H47           -7.8840     1.6736     1.1206 H       
  48 Br48          10.6660    11.2007     7.3686 Br      
@<TRIPOS>BOND
   1    1    2 2
   2    1   19 1
   3    1    5 1
   4    2    3 1
   5    2   13 1
   6    3    4 1
   7    4    5 2
   8    4    6 1
   9    6    7 1
  10    6   28 1
  11    7    8 ar
  12    7   12 ar
  13    8    9 ar
  14    8   26 1
  15    9   10 ar
  16    9   29 1
  17   10   11 ar
  18   10   30 1
  19   11   12 ar
  20   11   31 1
  21   12   32 1
  22   13   14 ar
  23   13   15 ar
  24   14   18 ar
  25   14   33 1
  26   15   16 ar
  27   15   34 1
  28   16   17 ar
  29   16   35 1
  30   17   18 ar
  31   17   25 1
  32   18   36 1
  33   19   20 ar
  34   19   21 ar
  35   20   24 ar
  36   20   37 1
  37   21   22 ar
  38   21   38 1
  39   22   23 ar
  40   22   39 1
  41   23   24 ar
  42   23   40 1
  43   24   41 1
  44   25   42 1
  45   25   43 1
  46   25   44 1
  47   26   27 1
  48   27   45 1
  49   27   46 1
  50   27   47 1

#	End of record

