#	Name: ASD04162004
#	Creating user name:	WinNT
#	Creation time:	15. 06. 2019 20:48

#	Modifying user name:	WinNT
#	Modification time:	15. 06. 2019 20:48

#	Program:	/corina/corina34_cracker 3.40 0067  02.08.2006

@<TRIPOS>MOLECULE
ASD04162004
  34   36    0    0    0
SMALL
NO_CHARGES


@<TRIPOS>ATOM
   1 C1            -0.0167     1.3822     0.0096 C.ar    
   2 C2             0.0021    -0.0041     0.0020 C.ar    
   3 C3             1.2162    -0.6807    -0.0133 C.ar    
   4 C4             2.4067     0.0360    -0.0208 C.ar    
   5 C5             2.3792     1.4225    -0.0131 C.ar    
   6 C6             1.1699     2.0916     0.0021 C.ar    
   7 O7            -1.1658    -0.7009     0.0099 O.3     
   8 O8             1.2389    -2.0414    -0.0203 O.3     
   9 O9             3.5971    -0.6214    -0.0353 O.3     
  10 C10            3.6697     2.2008    -0.0208 C.3     
  11 O11            3.4426     3.4942    -0.5805 O.3     
  12 C12            4.4421     4.4056    -0.5376 C.ar    
  13 C13            5.4753     4.2980     0.4102 C.ar    
  14 C14            5.4639     3.1687     1.3523 C.2     
  15 C15            4.1851     2.3528     1.4178 C.3     
  16 O16            3.2132     3.0343     2.2135 O.3     
  17 O17            6.4265     2.9027     2.0414 O.2     
  18 C18            4.4555     5.4625    -1.4335 C.ar    
  19 C19            5.4781     6.3984    -1.3838 C.ar    
  20 C20            6.4952     6.2869    -0.4389 C.ar    
  21 C21            6.4981     5.2502     0.4503 C.ar    
  22 O22            5.4878     7.4312    -2.2635 O.3     
  23 H23           -0.9597     1.9087     0.0170 H       
  24 H24            1.1519     3.1714     0.0077 H       
  25 H25           -1.5123    -0.8977    -0.8711 H       
  26 H26            1.2368    -2.4302    -0.9057 H       
  27 H27            3.9331    -0.8071    -0.9229 H       
  28 H28            4.4107     1.6705    -0.6190 H       
  29 H29            4.3925     1.3711     1.8436 H       
  30 H30            3.4928     3.1929     3.1255 H       
  31 H31            3.6710     5.5573    -2.1697 H       
  32 H32            7.2849     7.0231    -0.4092 H       
  33 H33            7.2879     5.1663     1.1821 H       
  34 H34            5.0179     8.2171    -1.9526 H       
@<TRIPOS>BOND
   1    1    2 ar
   2    1    6 ar
   3    1   23 1
   4    2    3 ar
   5    2    7 1
   6    3    4 ar
   7    3    8 1
   8    4    5 ar
   9    4    9 1
  10    5    6 ar
  11    5   10 1
  12    6   24 1
  13    7   25 1
  14    8   26 1
  15    9   27 1
  16   10   11 1
  17   10   15 1
  18   10   28 1
  19   11   12 1
  20   12   13 ar
  21   12   18 ar
  22   13   14 1
  23   13   21 ar
  24   14   15 1
  25   14   17 2
  26   15   16 1
  27   15   29 1
  28   16   30 1
  29   18   19 ar
  30   18   31 1
  31   19   20 ar
  32   19   22 1
  33   20   21 ar
  34   20   32 1
  35   21   33 1
  36   22   34 1

#	End of record

