#	Name: ASD01940581
#	Creating user name:	WinNT
#	Creation time:	15. 06. 2019 20:12

#	Modifying user name:	WinNT
#	Modification time:	15. 06. 2019 20:12

#	Program:	/corina/corina34_cracker 3.40 0067  02.08.2006

@<TRIPOS>MOLECULE
ASD01940581
  54   56    0    0    0
SMALL
NO_CHARGES


@<TRIPOS>ATOM
   1 C1             1.1651     1.5478     2.3215 C.ar    
   2 C2             0.8544     0.2138     2.0951 C.ar    
   3 C3             0.0635    -0.1386     1.0085 C.ar    
   4 C4            -0.4128     0.8373     0.1543 C.ar    
   5 C5            -0.1047     2.1655     0.3780 C.ar    
   6 C6             0.6849     2.5238     1.4624 C.ar    
   7 N7             1.3367    -0.7728     2.9581 N.am    
   8 S8             0.6450    -0.9793     4.4485 S.o2    
   9 C9            -1.0501    -1.5167     4.0902 C.3     
  10 O10            1.3895    -2.0371     5.0368 O.2     
  11 O11            0.6455     0.3223     5.0185 O.2     
  12 O12            0.9866     3.8303     1.6814 O.3     
  13 C13            2.2635     4.2379     1.4513 C.ar    
  14 C14            3.1801     3.3636     0.8857 C.ar    
  15 C15            4.4801     3.7767     0.6508 C.ar    
  16 C16            4.8715     5.0635     0.9785 C.ar    
  17 C17            3.9603     5.9445     1.5443 C.ar    
  18 C18            2.6500     5.5332     1.7774 C.ar    
  19 N19            4.3562     7.2460     1.8755 N.pl3   
  20 C20            5.5581     7.7594     1.3777 C.ar    
  21 C21            6.0152     7.3708     0.1254 C.ar    
  22 C22            7.2026     7.8794    -0.3639 C.ar    
  23 C23            7.9376     8.7750     0.3919 C.ar    
  24 C24            7.4867     9.1649     1.6403 C.ar    
  25 C25            6.2956     8.6649     2.1334 C.ar    
  26 F26            5.8521     9.0501     3.3500 F       
  27 I27            9.7381     9.5423    -0.3555 I       
  28 N28            1.7233     6.4225     2.3451 N.am    
  29 S29            1.0594     6.0929     3.8259 S.o2    
  30 C30           -1.8365    -1.6295     5.3978 C.3     
  31 F31            5.3697     2.9216     0.1006 F       
  32 O32            0.2191     7.2081     4.0893 O.2     
  33 O33            0.5196     4.7860     3.6849 O.2     
  34 C34            2.4729     6.0784     4.9627 C.3     
  35 H35            1.7760     1.8249     3.1679 H       
  36 H36           -0.1789    -1.1760     0.8313 H       
  37 H37           -1.0269     0.5614    -0.6902 H       
  38 H38           -0.4783     2.9259    -0.2917 H       
  39 H39            2.0768    -1.3369     2.6845 H       
  40 H40           -1.5321    -0.7882     3.4382 H       
  41 H41           -1.0266    -2.4877     3.5955 H       
  42 H42            2.8790     2.3589     0.6286 H       
  43 H43            5.8868     5.3820     0.7940 H       
  44 H44            3.7969     7.7916     2.4504 H       
  45 H45            5.4428     6.6711    -0.4656 H       
  46 H46            7.5580     7.5770    -1.3379 H       
  47 H47            8.0632     9.8638     2.2282 H       
  48 H48            1.4722     7.2299     1.8698 H       
  49 H49           -2.8551    -1.9524     5.1826 H       
  50 H50           -1.3546    -2.3580     6.0499 H       
  51 H51           -1.8600    -0.6586     5.8926 H       
  52 H52            2.9112     7.0753     5.0101 H       
  53 H53            2.1372     5.7815     5.9563 H       
  54 H54            3.2198     5.3698     4.6047 H       
@<TRIPOS>BOND
   1    1    2 ar
   2    1    6 ar
   3    1   35 1
   4    2    3 ar
   5    2    7 1
   6    3    4 ar
   7    3   36 1
   8    4    5 ar
   9    4   37 1
  10    5    6 ar
  11    5   38 1
  12    6   12 1
  13    7    8 am
  14    7   39 1
  15    8    9 1
  16    8   10 2
  17    8   11 2
  18    9   30 1
  19    9   40 1
  20    9   41 1
  21   12   13 1
  22   13   14 ar
  23   13   18 ar
  24   14   15 ar
  25   14   42 1
  26   15   16 ar
  27   15   31 1
  28   16   17 ar
  29   16   43 1
  30   17   18 ar
  31   17   19 1
  32   18   28 1
  33   19   20 1
  34   19   44 1
  35   20   21 ar
  36   20   25 ar
  37   21   22 ar
  38   21   45 1
  39   22   23 ar
  40   22   46 1
  41   23   24 ar
  42   23   27 1
  43   24   25 ar
  44   24   47 1
  45   25   26 1
  46   28   29 am
  47   28   48 1
  48   29   32 2
  49   29   33 2
  50   29   34 1
  51   30   49 1
  52   30   50 1
  53   30   51 1
  54   34   52 1
  55   34   53 1
  56   34   54 1

#	End of record

