#	Name: ASD01913633
#	Creating user name:	WinNT
#	Creation time:	15. 06. 2019 20:01

#	Modifying user name:	WinNT
#	Modification time:	15. 06. 2019 20:01

#	Program:	/corina/corina34_cracker 3.40 0067  02.08.2006

@<TRIPOS>MOLECULE
ASD01913633
  37   39    0    0    0
SMALL
NO_CHARGES


@<TRIPOS>ATOM
   1 C1            -0.0060     1.3551     0.0122 C.ar    
   2 C2             0.0156    -0.0270    -0.0002 C.ar    
   3 C3             1.2233    -0.6992    -0.0199 C.ar    
   4 C4             2.4094     0.0107    -0.0277 C.ar    
   5 C5             2.3878     1.3928    -0.0162 C.ar    
   6 C6             1.1801     2.0650     0.0050 C.ar    
   7 C7             3.6809     2.1667    -0.0242 C.3     
   8 O8             4.0747     2.4223    -1.3738 O.3     
   9 C9             5.2254     3.1135    -1.5585 C.ar    
  10 N10            5.9216     3.5146    -0.5058 N.ar    
  11 C11            7.0456     4.1886    -0.6363 C.ar    
  12 C12            7.5401     4.5027    -1.9030 C.ar    
  13 C13            6.8221     4.0897    -3.0352 C.ar    
  14 C14            5.6611     3.3866    -2.8514 C.ar    
  15 C15            8.7992     5.2583    -2.0492 C.2     
  16 N16            9.4807     5.6505    -0.9546 N.am    
  17 O17            9.2217     5.5270    -3.1570 O.2     
  18 C18           10.7185     6.2670    -1.0907 C.ar    
  19 N19           11.2839     6.3889    -2.2873 N.ar    
  20 C20           12.4576     6.9729    -2.4204 C.ar    
  21 N21           13.1150     7.4557    -1.3854 N.ar    
  22 C22           12.6161     7.3719    -0.1605 C.ar    
  23 C23           11.3850     6.7731     0.0261 C.ar    
  24 H24           -0.9496     1.8804     0.0231 H       
  25 H25           -0.9111    -0.5816     0.0059 H       
  26 H26            1.2402    -1.7791    -0.0289 H       
  27 H27            3.3530    -0.5146    -0.0424 H       
  28 H28            1.1632     3.1448     0.0136 H       
  29 H29            3.5414     3.1127     0.4990 H       
  30 H30            4.4553     1.5854     0.4764 H       
  31 H31            7.5884     4.5009     0.2436 H       
  32 H32            7.1787     4.3173    -4.0289 H       
  33 H33            5.0849     3.0542    -3.7023 H       
  34 H34            9.1071     5.5024    -0.0717 H       
  35 H35           12.8931     7.0579    -3.4050 H       
  36 H36           13.1632     7.7705     0.6810 H       
  37 H37           10.9534     6.6905     1.0127 H       
@<TRIPOS>BOND
   1    1    2 ar
   2    1    6 ar
   3    1   24 1
   4    2    3 ar
   5    2   25 1
   6    3    4 ar
   7    3   26 1
   8    4    5 ar
   9    4   27 1
  10    5    6 ar
  11    5    7 1
  12    6   28 1
  13    7    8 1
  14    7   29 1
  15    7   30 1
  16    8    9 1
  17    9   10 ar
  18    9   14 ar
  19   10   11 ar
  20   11   12 ar
  21   11   31 1
  22   12   13 ar
  23   12   15 1
  24   13   14 ar
  25   13   32 1
  26   14   33 1
  27   15   16 am
  28   15   17 2
  29   16   18 1
  30   16   34 1
  31   18   19 ar
  32   18   23 ar
  33   19   20 ar
  34   20   21 ar
  35   20   35 1
  36   21   22 ar
  37   22   23 ar
  38   22   36 1
  39   23   37 1

#	End of record

