#	Name: ASD01885837
#	Creating user name:	WinNT
#	Creation time:	15. 06. 2019 19:50

#	Modifying user name:	WinNT
#	Modification time:	15. 06. 2019 19:50

#	Program:	/corina/corina34_cracker 3.40 0067  02.08.2006

@<TRIPOS>MOLECULE
ASD01885837
  46   49    0    0    0
SMALL
NO_CHARGES


@<TRIPOS>ATOM
   1 C1            -0.0594     1.2874     0.4406 C.ar    
   2 C2            -0.0139    -0.0283    -0.0864 C.ar    
   3 C3             1.2293    -0.7100    -0.1267 C.ar    
   4 C4             2.3498    -0.0487     0.3564 C.ar    
   5 C5             2.2196     1.2511     0.8607 C.ar    
   6 N6             1.0542     1.8679     0.8899 N.ar    
   7 C7            -2.4329     1.3368     0.0195 C.ar    
   8 C8            -2.3676     0.0356    -0.5086 C.ar    
   9 C9            -1.1867    -0.6358    -0.5571 C.ar    
  10 C10            1.3285    -2.0850    -0.6670 C.ar    
  11 C11            3.4214     1.9508     1.3755 C.2     
  12 C12           -3.7306     2.0446     0.0664 C.2     
  13 N13           -4.8169     1.4276     0.5720 N.am    
  14 C14           -1.2920     1.9645     0.4871 C.ar    
  15 N15            3.3146     3.2018     1.8654 N.am    
  16 O16            4.5023     1.3964     1.3556 O.2     
  17 C17           -4.7565     0.0231     1.0068 C.3     
  18 C18           -5.3364    -0.0700     2.4228 C.3     
  19 O19           -6.6260     0.5465     2.4448 O.3     
  20 C20           -6.6127     1.9425     2.1366 C.3     
  21 C21           -6.0967     2.1403     0.7112 C.3     
  22 O22           -3.8174     3.1829    -0.3510 O.2     
  23 C23            2.2984    -2.3938    -1.6212 C.ar    
  24 C24            2.3870    -3.6760    -2.1211 C.ar    
  25 C25            1.5147    -4.6573    -1.6770 C.ar    
  26 C26            0.5495    -4.3556    -0.7292 C.ar    
  27 C27            0.4562    -3.0775    -0.2194 C.ar    
  28 F28            1.6052    -5.9118    -2.1700 F       
  29 H29            3.3150    -0.5331     0.3438 H       
  30 H30           -3.2663    -0.4373    -0.8762 H       
  31 H31           -1.1517    -1.6377    -0.9588 H       
  32 H32           -1.3472     2.9669     0.8852 H       
  33 H33            2.4517     3.6445     1.8812 H       
  34 H34            4.1008     3.6596     2.2021 H       
  35 H35           -5.3429    -0.5968     0.3285 H       
  36 H36           -3.7205    -0.3156     1.0114 H       
  37 H37           -5.4286    -1.1174     2.7103 H       
  38 H38           -4.6755     0.4432     3.1213 H       
  39 H39           -7.6232     2.3430     2.2183 H       
  40 H40           -5.9565     2.4630     2.8341 H       
  41 H41           -5.9498     3.2030     0.5182 H       
  42 H42           -6.8163     1.7337     0.0006 H       
  43 H43            2.9783    -1.6298    -1.9681 H       
  44 H44            3.1372    -3.9159    -2.8600 H       
  45 H45           -0.1280    -5.1236    -0.3863 H       
  46 H46           -0.2962    -2.8434     0.5192 H       
@<TRIPOS>BOND
   1    1    2 ar
   2    1    6 ar
   3    1   14 ar
   4    2    3 ar
   5    2    9 ar
   6    3   10 1
   7    3    4 ar
   8    4    5 ar
   9    4   29 1
  10    5   11 1
  11    5    6 ar
  12    7   12 1
  13    7   14 ar
  14    7    8 ar
  15    8    9 ar
  16    8   30 1
  17    9   31 1
  18   10   23 ar
  19   10   27 ar
  20   11   15 am
  21   11   16 2
  22   12   13 am
  23   12   22 2
  24   13   17 1
  25   13   21 1
  26   14   32 1
  27   15   33 1
  28   15   34 1
  29   17   18 1
  30   17   35 1
  31   17   36 1
  32   18   19 1
  33   18   37 1
  34   18   38 1
  35   19   20 1
  36   20   21 1
  37   20   39 1
  38   20   40 1
  39   21   41 1
  40   21   42 1
  41   23   24 ar
  42   23   43 1
  43   24   25 ar
  44   24   44 1
  45   25   26 ar
  46   25   28 1
  47   26   27 ar
  48   26   45 1
  49   27   46 1

#	End of record

