#	Name: ASD00310426
#	Creating user name:	WinNT
#	Creation time:	15. 06. 2019 18:34

#	Modifying user name:	WinNT
#	Modification time:	15. 06. 2019 18:34

#	Program:	/corina/corina34_cracker 3.40 0067  02.08.2006

@<TRIPOS>MOLECULE
ASD00310426
  45   47    0    0    0
SMALL
NO_CHARGES


@<TRIPOS>ATOM
   1 N1            -0.0163     1.3513     0.0095 N.pl3   
   2 C2             0.0021    -0.0041     0.0020 C.2     
   3 C3             1.2930    -0.4477    -0.0127 C.2     
   4 C4             2.1483     0.7539    -0.0144 C.ar    
   5 C5             3.5254     0.9607    -0.0268 C.ar    
   6 C6             4.0221     2.2458    -0.0251 C.ar    
   7 C7             3.1572     3.3305    -0.0110 C.ar    
   8 C8             1.7926     3.1401     0.0019 C.ar    
   9 C9             1.2717     1.8504    -0.0001 C.ar    
  10 C10            1.7414    -1.8446    -0.0237 C.2     
  11 O11            2.9298    -2.1017    -0.0361 O.2     
  12 O12            0.8355    -2.8435    -0.0202 O.3     
  13 C13           -1.1783     2.1358     0.0194 C.ar    
  14 C14           -1.4779     2.9545    -1.0676 C.ar    
  15 C15           -2.6277     3.7269    -1.0524 C.ar    
  16 C16           -3.4747     3.6849     0.0397 C.ar    
  17 C17           -3.1779     2.8731     1.1187 C.ar    
  18 C18           -2.0358     2.0946     1.1087 C.ar    
  19 O19           -0.6435     2.9954    -2.1402 O.3     
  20 C20           -1.0143     3.8573    -3.2180 C.3     
  21 C21            0.0376     3.7703    -4.3257 C.3     
  22 C22            0.1267     2.3294    -4.8324 C.3     
  23 C23           -0.3594     4.6931    -5.4797 C.3     
  24 C24            1.3974     4.2014    -3.7726 C.3     
  25 H25           -0.8727    -0.6375     0.0073 H       
  26 H26            4.2006     0.1179    -0.0375 H       
  27 H27            5.0896     2.4095    -0.0343 H       
  28 H28            3.5573     4.3337    -0.0097 H       
  29 H29            1.1281     3.9915     0.0135 H       
  30 H30            1.1788    -3.7475    -0.0279 H       
  31 H31           -2.8624     4.3624    -1.8935 H       
  32 H32           -4.3705     4.2881     0.0500 H       
  33 H33           -3.8421     2.8441     1.9698 H       
  34 H34           -1.8088     1.4578     1.9510 H       
  35 H35           -1.9831     3.5501    -3.6121 H       
  36 H36           -1.0778     4.8838    -2.8570 H       
  37 H37           -0.8421     2.0223    -5.2264 H       
  38 H38            0.8761     2.2674    -5.6215 H       
  39 H39            0.4095     1.6720    -4.0103 H       
  40 H40           -0.4229     5.7196    -5.1187 H       
  41 H41            0.3900     4.6311    -6.2687 H       
  42 H42           -1.3282     4.3860    -5.8737 H       
  43 H43            1.6802     3.5440    -2.9504 H       
  44 H44            2.1468     4.1395    -4.5617 H       
  45 H45            1.3339     5.2279    -3.4116 H       
@<TRIPOS>BOND
   1    1    2 1
   2    1    9 1
   3    1   13 1
   4    2    3 2
   5    2   25 1
   6    3    4 1
   7    3   10 1
   8    4    5 ar
   9    4    9 ar
  10    5    6 ar
  11    5   26 1
  12    6    7 ar
  13    6   27 1
  14    7    8 ar
  15    7   28 1
  16    8    9 ar
  17    8   29 1
  18   10   11 2
  19   10   12 1
  20   12   30 1
  21   13   14 ar
  22   13   18 ar
  23   14   15 ar
  24   14   19 1
  25   15   16 ar
  26   15   31 1
  27   16   17 ar
  28   16   32 1
  29   17   18 ar
  30   17   33 1
  31   18   34 1
  32   19   20 1
  33   20   21 1
  34   20   35 1
  35   20   36 1
  36   21   22 1
  37   21   23 1
  38   21   24 1
  39   22   37 1
  40   22   38 1
  41   22   39 1
  42   23   40 1
  43   23   41 1
  44   23   42 1
  45   24   43 1
  46   24   44 1
  47   24   45 1

#	End of record

