#	Name: ASD03092244
#	Creating user name:	WinNT
#	Creation time:	15. 06. 2019 20:32

#	Modifying user name:	WinNT
#	Modification time:	15. 06. 2019 20:32

#	Program:	/corina/corina34_cracker 3.40 0067  02.08.2006

@<TRIPOS>MOLECULE
ASD03092244
  50   53    0    0    0
SMALL
NO_CHARGES


@<TRIPOS>ATOM
   1 C1            -0.0173     1.4248     0.0099 C.3     
   2 O2             0.0021    -0.0041     0.0020 O.3     
   3 C3            -1.1998    -0.6372     0.0101 C.ar    
   4 C4            -2.3733     0.0991     0.0195 C.ar    
   5 C5            -3.5956    -0.5463     0.0282 C.ar    
   6 C6            -3.6552    -1.9285     0.0276 C.ar    
   7 C7            -2.4935    -2.6744     0.0178 C.ar    
   8 C8            -1.2569    -2.0343     0.0031 C.ar    
   9 C9            -0.0056    -2.8311    -0.0136 C.ar    
  10 C10            0.9905    -2.5431    -0.9411 C.ar    
  11 C11            2.1653    -3.2937    -0.9535 C.ar    
  12 C12            2.3377    -4.3307    -0.0361 C.ar    
  13 C13            1.3420    -4.6140     0.8863 C.ar    
  14 C14            0.1751    -3.8649     0.9035 C.ar    
  15 N15            1.5176    -5.6576     1.8075 N.pl3   
  16 C16            2.6238    -6.4099     1.9935 C.2     
  17 N17            2.3571    -7.2631     2.9475 N.2     
  18 N18            1.1578    -7.1016     3.3773 N.2     
  19 N19            0.5818    -6.1405     2.7392 N.2     
  20 C20            3.2268    -2.9916    -1.9378 C.2     
  21 O21            3.0754    -2.0883    -2.7368 O.2     
  22 N22            4.3620    -3.7180    -1.9489 N.am    
  23 C23            5.4136    -3.4187    -2.9240 C.3     
  24 C24            6.5849    -4.3823    -2.7228 C.3     
  25 C25            7.6666    -4.0745    -3.7258 C.ar    
  26 C26            8.9522    -3.8203    -3.2874 C.ar    
  27 C27            9.9404    -3.5385    -4.2186 C.ar    
  28 C28            9.5965    -3.5230    -5.5615 C.ar    
  29 C29            8.2893    -3.7871    -5.9250 C.ar    
  30 N30            7.3766    -4.0561    -5.0122 N.ar    
  31 H31            1.0053     1.8021     0.0021 H       
  32 H32           -0.5445     1.7859    -0.8732 H       
  33 H33           -0.5275     1.7763     0.9067 H       
  34 H34           -2.3331     1.1783     0.0204 H       
  35 H35           -4.5083     0.0310     0.0359 H       
  36 H36           -4.6138    -2.4258     0.0352 H       
  37 H37           -2.5438    -3.7532     0.0173 H       
  38 H38            0.8540    -1.7400    -1.6501 H       
  39 H39            3.2470    -4.9133    -0.0448 H       
  40 H40           -0.5967    -4.0856     1.6261 H       
  41 H41            3.5555    -6.3228     1.4543 H       
  42 H42            4.4828    -4.4389    -1.3112 H       
  43 H43            5.0172    -3.5342    -3.9327 H       
  44 H44            5.7579    -2.3940    -2.7840 H       
  45 H45            6.9813    -4.2668    -1.7140 H       
  46 H46            6.2406    -5.4070    -2.8627 H       
  47 H47            9.1843    -3.8404    -2.2329 H       
  48 H48           10.9537    -3.3356    -3.9050 H       
  49 H49           10.3404    -3.3070    -6.3140 H       
  50 H50            8.0132    -3.7766    -6.9691 H       
@<TRIPOS>BOND
   1    1    2 1
   2    1   31 1
   3    1   32 1
   4    1   33 1
   5    2    3 1
   6    3    8 ar
   7    3    4 ar
   8    4    5 ar
   9    4   34 1
  10    5    6 ar
  11    5   35 1
  12    6    7 ar
  13    6   36 1
  14    7    8 ar
  15    7   37 1
  16    8    9 1
  17    9   14 ar
  18    9   10 ar
  19   10   11 ar
  20   10   38 1
  21   11   12 ar
  22   11   20 1
  23   12   13 ar
  24   12   39 1
  25   13   14 ar
  26   13   15 1
  27   14   40 1
  28   15   19 1
  29   15   16 1
  30   16   17 2
  31   16   41 1
  32   17   18 1
  33   18   19 2
  34   20   21 2
  35   20   22 am
  36   22   23 1
  37   22   42 1
  38   23   24 1
  39   23   43 1
  40   23   44 1
  41   24   25 1
  42   24   45 1
  43   24   46 1
  44   25   30 ar
  45   25   26 ar
  46   26   27 ar
  47   26   47 1
  48   27   28 ar
  49   27   48 1
  50   28   29 ar
  51   28   49 1
  52   29   30 ar
  53   29   50 1

#	End of record

