#	Name: ASD01940274
#	Creating user name:	WinNT
#	Creation time:	15. 06. 2019 20:12

#	Modifying user name:	WinNT
#	Modification time:	15. 06. 2019 20:12

#	Program:	/corina/corina34_cracker 3.40 0067  02.08.2006

@<TRIPOS>MOLECULE
ASD01940274
  48   50    0    0    0
SMALL
NO_CHARGES


@<TRIPOS>ATOM
   1 C1             1.3003     7.1688    -3.9481 C.3     
   2 C2             1.6283     7.3648    -5.4296 C.3     
   3 C3             1.9212     6.0247    -4.7520 C.3     
   4 S4             2.3565     8.0116    -2.7378 S.o2    
   5 O5             3.6895     7.5257    -2.8154 O.2     
   6 O6             2.0847     9.4063    -2.7245 O.2     
   7 N7             1.8111     7.4753    -1.2690 N.am    
   8 C8             1.9903     6.1348    -0.9021 C.ar    
   9 C9             1.1145     5.5350     0.0020 C.ar    
  10 C10            1.2968     4.2069     0.3620 C.ar    
  11 C11            2.3477     3.4817    -0.1776 C.ar    
  12 C12            3.2156     4.0793    -1.0748 C.ar    
  13 C13            3.0355     5.4008    -1.4416 C.ar    
  14 F14            2.5252     2.1892     0.1732 F       
  15 F15            0.4510     3.6216     1.2380 F       
  16 N16            0.0531     6.2714     0.5462 N.pl3   
  17 C17            0.2650     7.0785     1.6670 C.ar    
  18 C18           -0.8111     7.6972     2.2938 C.ar    
  19 C19           -0.5974     8.4941     3.4020 C.ar    
  20 C20            0.6849     8.6767     3.8873 C.ar    
  21 C21            1.7568     8.0632     3.2659 C.ar    
  22 C22            1.5501     7.2600     2.1611 C.ar    
  23 Cl23          -2.4206     7.4692     1.6844 Cl      
  24 C24            0.9143     9.5470     5.0961 C.3     
  25 C25            0.1442     8.9765     6.2888 C.3     
  26 C26            2.4085     9.5819     5.4233 C.3     
  27 C27            0.4230    10.9661     4.8034 C.3     
  28 H28            0.2495     7.0783    -3.6730 H       
  29 H29            0.7933     7.4032    -6.1292 H       
  30 H30            2.4788     8.0001    -5.6770 H       
  31 H31            2.9643     5.7783    -4.5536 H       
  32 H32            1.2789     5.1814    -5.0057 H       
  33 H33            1.3676     8.0889    -0.6628 H       
  34 H34            4.0334     3.5111    -1.4929 H       
  35 H35            3.7122     5.8625    -2.1454 H       
  36 H36           -0.8284     6.2207     0.1447 H       
  37 H37           -1.4324     8.9751     3.8897 H       
  38 H38            2.7567     8.2087     3.6473 H       
  39 H39            2.3877     6.7777     1.6791 H       
  40 H40            0.4942     7.9655     6.4973 H       
  41 H41            0.3101     9.6060     7.1630 H       
  42 H42           -0.9203     8.9517     6.0557 H       
  43 H43            2.9571     9.9883     4.5736 H       
  44 H44            2.5744    10.2113     6.2975 H       
  45 H45            2.7585     8.5709     5.6318 H       
  46 H46           -0.6415    10.9412     4.5703 H       
  47 H47            0.5889    11.5956     5.6777 H       
  48 H48            0.9716    11.3725     3.9537 H       
@<TRIPOS>BOND
   1    1    2 1
   2    1    3 1
   3    1    4 1
   4    1   28 1
   5    2    3 1
   6    2   29 1
   7    2   30 1
   8    3   31 1
   9    3   32 1
  10    4    5 2
  11    4    6 2
  12    4    7 am
  13    7    8 1
  14    7   33 1
  15    8    9 ar
  16    8   13 ar
  17    9   10 ar
  18    9   16 1
  19   10   11 ar
  20   10   15 1
  21   11   12 ar
  22   11   14 1
  23   12   13 ar
  24   12   34 1
  25   13   35 1
  26   16   17 1
  27   16   36 1
  28   17   18 ar
  29   17   22 ar
  30   18   19 ar
  31   18   23 1
  32   19   20 ar
  33   19   37 1
  34   20   21 ar
  35   20   24 1
  36   21   22 ar
  37   21   38 1
  38   22   39 1
  39   24   25 1
  40   24   27 1
  41   24   26 1
  42   25   40 1
  43   25   41 1
  44   25   42 1
  45   26   43 1
  46   26   44 1
  47   26   45 1
  48   27   46 1
  49   27   47 1
  50   27   48 1

#	End of record

