#	Name: ASD03730017
#	Creating user name:	WinNT
#	Creation time:	15. 06. 2019 20:43

#	Modifying user name:	WinNT
#	Modification time:	15. 06. 2019 20:43

#	Program:	/corina/corina34_cracker 3.40 0067  02.08.2006

@<TRIPOS>MOLECULE
ASD03730017
  48   51    0    0    0
SMALL
NO_CHARGES


@<TRIPOS>ATOM
   1 O1            -0.0175     1.4361     0.0099 O.3     
   2 C2             0.0021    -0.0041     0.0020 C.3     
   3 C3             1.3451    -0.3163    -0.6721 C.3     
   4 C4             2.1587     0.9226    -0.4098 C.ar    
   5 C5             1.2615     1.9062     0.0003 C.ar    
   6 C6             1.7486     3.1673     0.3277 C.ar    
   7 C7             3.1031     3.4386     0.2364 C.ar    
   8 C8             3.9847     2.4527    -0.1831 C.ar    
   9 C9             3.5059     1.1961    -0.5043 C.ar    
  10 N10            2.1574    -2.4046    -1.1246 N.am    
  11 C11            1.9841    -1.5482    -0.0982 C.2     
  12 C12            1.1866    -0.5961    -2.1370 C.ar    
  13 C13            0.6757     0.1246    -3.1937 C.ar    
  14 C14            0.6686    -0.4210    -4.4651 C.ar    
  15 C15            1.1757    -1.6909    -4.6725 C.ar    
  16 C16            1.6886    -2.4163    -3.6174 C.ar    
  17 C17            1.6999    -1.8755    -2.3339 C.ar    
  18 O18            2.2851    -1.7358     1.0617 O.2     
  19 C19            2.7564    -3.7346    -0.9881 C.3     
  20 C20            1.6598    -4.7599    -0.6925 C.3     
  21 C21            2.2854    -6.1489    -0.5499 C.3     
  22 C22            1.1889    -7.1741    -0.2543 C.3     
  23 C23            1.8144    -8.5631    -0.1117 C.3     
  24 O24            3.5704     4.6735     0.5581 O.3     
  25 C25            4.9788     4.8850     0.4413 C.3     
  26 H26           -0.0211    -0.3969     1.0185 H       
  27 H27           -0.8268    -0.3990    -0.5855 H       
  28 H28            1.0669     3.9386     0.6543 H       
  29 H29            5.0407     2.6661    -0.2586 H       
  30 H30            4.1899     0.4264    -0.8301 H       
  31 H31            0.2802     1.1161    -3.0296 H       
  32 H32            0.2674     0.1434    -5.2938 H       
  33 H33            1.1697    -2.1166    -5.6650 H       
  34 H34            2.0826    -3.4074    -3.7871 H       
  35 H35            3.2631    -4.0018    -1.9154 H       
  36 H36            3.4764    -3.7266    -0.1698 H       
  37 H37            1.1531    -4.4927     0.2348 H       
  38 H38            0.9398    -4.7679    -1.5108 H       
  39 H39            2.7922    -6.4160    -1.4772 H       
  40 H40            3.0054    -6.1408     0.2684 H       
  41 H41            0.6821    -6.9069     0.6730 H       
  42 H42            0.4688    -7.1822    -1.0726 H       
  43 H43            2.3212    -8.8303    -1.0390 H       
  44 H44            2.5345    -8.5550     0.7066 H       
  45 H45            1.0332    -9.2935     0.0989 H       
  46 H46            5.5058     4.1924     1.0976 H       
  47 H47            5.2876     4.7145    -0.5900 H       
  48 H48            5.2174     5.9093     0.7274 H       
@<TRIPOS>BOND
   1    1    2 1
   2    1    5 1
   3    2    3 1
   4    2   26 1
   5    2   27 1
   6    3    4 1
   7    3   11 1
   8    3   12 1
   9    4    5 ar
  10    4    9 ar
  11    5    6 ar
  12    6    7 ar
  13    6   28 1
  14    7    8 ar
  15    7   24 1
  16    8    9 ar
  17    8   29 1
  18    9   30 1
  19   10   11 am
  20   10   17 1
  21   10   19 1
  22   11   18 2
  23   12   13 ar
  24   12   17 ar
  25   13   14 ar
  26   13   31 1
  27   14   15 ar
  28   14   32 1
  29   15   16 ar
  30   15   33 1
  31   16   17 ar
  32   16   34 1
  33   19   20 1
  34   19   35 1
  35   19   36 1
  36   20   21 1
  37   20   37 1
  38   20   38 1
  39   21   22 1
  40   21   39 1
  41   21   40 1
  42   22   23 1
  43   22   41 1
  44   22   42 1
  45   23   43 1
  46   23   44 1
  47   23   45 1
  48   24   25 1
  49   25   46 1
  50   25   47 1
  51   25   48 1

#	End of record

