#	Name: ASD01152523
#	Creating user name:	WinNT
#	Creation time:	15. 06. 2019 19:06

#	Modifying user name:	WinNT
#	Modification time:	15. 06. 2019 19:06

#	Program:	/corina/corina34_cracker 3.40 0067  02.08.2006

@<TRIPOS>MOLECULE
ASD01152523
  54   56    0    0    0
SMALL
NO_CHARGES


@<TRIPOS>ATOM
   1 C1            -0.6826     1.2249     0.8101 C.2     
   2 N2            -0.4270    -0.0273     0.5399 N.2     
   3 N3            -1.3998    -1.0176     0.6747 N.am    
   4 C4            -2.6966    -0.7334     0.8801 C.2     
   5 C5            -3.1767     0.6986     0.8518 C.3     
   6 C6            -2.0244     1.5807     1.2965 C.2     
   7 C7            -3.6049     1.0735    -0.5683 C.3     
   8 O8            -2.2050     2.5416     2.0157 O.2     
   9 C9            -1.0099    -2.3593     0.5926 C.ar    
  10 O10           -3.4854    -1.6305     1.0886 O.2     
  11 C11           -4.1889     2.4628    -0.5666 C.ar    
  12 C12            0.0732    -2.8143     1.3314 C.ar    
  13 C13           -1.7105    -3.2382    -0.2245 C.ar    
  14 C14           -1.3265    -4.5626    -0.3064 C.ar    
  15 C15           -0.2444    -5.0180     0.4240 C.ar    
  16 C16            0.4568    -4.1448     1.2475 C.ar    
  17 C17           -5.5199     2.6568    -0.2200 C.ar    
  18 C18           -3.3994     3.5448    -0.9042 C.ar    
  19 C19           -3.9336     4.8199    -0.9026 C.ar    
  20 C20           -5.2609     5.0168    -0.5624 C.ar    
  21 C21           -6.0546     3.9389    -0.2191 C.ar    
  22 Cl22          -5.9271     6.6199    -0.5607 Cl      
  23 Cl23           0.2346    -6.6833     0.3180 Cl      
  24 N24           -6.3191     1.5650     0.1264 N.3     
  25 C25           -6.8742     1.7264     1.4769 C.3     
  26 C26           -7.3874     1.3603    -0.8609 C.3     
  27 N27            1.5485    -4.6076     1.9915 N.am    
  28 C28            1.9684    -3.9191     3.0714 C.2     
  29 O29            1.3507    -2.9455     3.4477 O.2     
  30 C30            3.2053    -4.3592     3.8113 C.3     
  31 O31            0.2727     2.1780     0.6507 O.3     
  32 C32            1.5500     1.7438     0.1794 C.3     
  33 H33           -4.0169     0.8197     1.5356 H       
  34 H34           -2.7383     1.0445    -1.2288 H       
  35 H35           -4.3543     0.3648    -0.9209 H       
  36 H36            0.6165    -2.1338     1.9703 H       
  37 H37           -2.5564    -2.8855    -0.7960 H       
  38 H38           -1.8729    -5.2438    -0.9420 H       
  39 H39           -2.3633     3.3945    -1.1694 H       
  40 H40           -3.3140     5.6640    -1.1669 H       
  41 H41           -7.0901     4.0926     0.0463 H       
  42 H42           -7.4822     2.6304     1.5141 H       
  43 H43           -7.4924     0.8625     1.7213 H       
  44 H44           -6.0601     1.8061     2.1972 H       
  45 H45           -6.9502     1.2659    -1.8549 H       
  46 H46           -7.9373     0.4510    -0.6180 H       
  47 H47           -8.0673     2.2120    -0.8424 H       
  48 H48            2.0027    -5.4237     1.7298 H       
  49 H49            4.0787    -3.8664     3.3843 H       
  50 H50            3.1143    -4.0897     4.8636 H       
  51 H51            3.3174    -5.4396     3.7213 H       
  52 H52            1.9700     1.0225     0.8806 H       
  53 H53            1.4367     1.2761    -0.7986 H       
  54 H54            2.2176     2.6014     0.0969 H       
@<TRIPOS>BOND
   1    1    2 2
   2    1   31 1
   3    1    6 1
   4    2    3 1
   5    3    4 am
   6    3    9 1
   7    4    5 1
   8    4   10 2
   9    5    6 1
  10    5    7 1
  11    5   33 1
  12    6    8 2
  13    7   11 1
  14    7   34 1
  15    7   35 1
  16    9   12 ar
  17    9   13 ar
  18   11   17 ar
  19   11   18 ar
  20   12   16 ar
  21   12   36 1
  22   13   14 ar
  23   13   37 1
  24   14   15 ar
  25   14   38 1
  26   15   16 ar
  27   15   23 1
  28   16   27 1
  29   17   24 1
  30   17   21 ar
  31   18   19 ar
  32   18   39 1
  33   19   20 ar
  34   19   40 1
  35   20   21 ar
  36   20   22 1
  37   21   41 1
  38   24   25 1
  39   24   26 1
  40   25   42 1
  41   25   43 1
  42   25   44 1
  43   26   45 1
  44   26   46 1
  45   26   47 1
  46   27   28 am
  47   27   48 1
  48   28   29 2
  49   28   30 1
  50   30   49 1
  51   30   50 1
  52   30   51 1
  53   31   32 1
  54   32   52 1
  55   32   53 1
  56   32   54 1

#	End of record

