#	Name: ASD02560026
#	Creating user name:	WinNT
#	Creation time:	15. 06. 2019 20:24

#	Modifying user name:	WinNT
#	Modification time:	15. 06. 2019 20:24

#	Program:	/corina/corina34_cracker 3.40 0067  02.08.2006

@<TRIPOS>MOLECULE
ASD02560026
  42   43    0    0    0
SMALL
NO_CHARGES


@<TRIPOS>ATOM
   1 C1            -0.0167     1.3829     0.0096 C.ar    
   2 C2             0.0021    -0.0041     0.0020 C.ar    
   3 C3            -1.1821    -0.7180     0.0076 C.ar    
   4 C4            -2.3939    -0.0465     0.0213 C.ar    
   5 C5            -2.4122     1.3498     0.0333 C.ar    
   6 C6            -1.2274     2.0620     0.0307 C.ar    
   7 N7            -3.6033    -0.7526     0.0170 N.am    
   8 C8            -4.7621    -0.1336     0.3117 C.2     
   9 C9            -4.7815     1.3213     0.7051 C.3     
  10 N10           -3.6524     2.0076     0.0595 N.am    
  11 C11           -4.6527     1.4424     2.2249 C.3     
  12 S12           -4.8243     3.1820     2.7096 S.3     
  13 C13           -4.6459     3.1224     4.5138 C.3     
  14 O14            1.1518     2.0780     0.0022 O.3     
  15 C15            2.3602     1.3154    -0.0134 C.3     
  16 C16           -3.8032     3.2293    -0.4893 C.2     
  17 O17           -2.7549     3.8382    -1.0752 O.3     
  18 C18           -2.9903     5.1527    -1.6453 C.3     
  19 C19           -1.7031     5.9768    -1.5757 C.3     
  20 O20           -4.8853     3.7812    -0.4554 O.2     
  21 C21           -3.4232     5.0053    -3.1054 C.3     
  22 S22           -6.2313    -1.0094     0.2381 S.2     
  23 H23            0.9460    -0.5288    -0.0087 H       
  24 H24           -1.1625    -1.7978     0.0009 H       
  25 H25           -1.2436     3.1418     0.0369 H       
  26 H26           -3.6062    -1.6978    -0.2009 H       
  27 H27           -5.7179     1.7746     0.3799 H       
  28 H28           -5.4345     0.8529     2.7038 H       
  29 H29           -3.6760     1.0728     2.5373 H       
  30 H30           -5.4279     2.4909     4.9355 H       
  31 H31           -3.6694     2.7108     4.7690 H       
  32 H32           -4.7333     4.1297     4.9210 H       
  33 H33            2.4017     0.6822     0.8728 H       
  34 H34            2.3847     0.6917    -0.9070 H       
  35 H35            3.2159     1.9906    -0.0180 H       
  36 H36           -3.7757     5.6574    -1.0827 H       
  37 H37           -0.9177     5.4721    -2.1384 H       
  38 H38           -1.8799     6.9636    -2.0037 H       
  39 H39           -1.3947     6.0819    -0.5356 H       
  40 H40           -3.5999     5.9920    -3.5334 H       
  41 H41           -2.6378     4.5006    -3.6680 H       
  42 H42           -4.3402     4.4181    -3.1549 H       
@<TRIPOS>BOND
   1    1    2 ar
   2    1   14 1
   3    1    6 ar
   4    2    3 ar
   5    2   23 1
   6    3    4 ar
   7    3   24 1
   8    4    5 ar
   9    4    7 1
  10    5    6 ar
  11    5   10 1
  12    6   25 1
  13    7    8 am
  14    7   26 1
  15    8    9 1
  16    8   22 2
  17    9   10 1
  18    9   11 1
  19    9   27 1
  20   10   16 am
  21   11   12 1
  22   11   28 1
  23   11   29 1
  24   12   13 1
  25   13   30 1
  26   13   31 1
  27   13   32 1
  28   14   15 1
  29   15   33 1
  30   15   34 1
  31   15   35 1
  32   16   17 1
  33   16   20 2
  34   17   18 1
  35   18   19 1
  36   18   21 1
  37   18   36 1
  38   19   37 1
  39   19   38 1
  40   19   39 1
  41   21   40 1
  42   21   41 1
  43   21   42 1

#	End of record

