#	Name: ASD01913724
#	Creating user name:	WinNT
#	Creation time:	15. 06. 2019 20:02

#	Modifying user name:	WinNT
#	Modification time:	15. 06. 2019 20:02

#	Program:	/corina/corina34_cracker 3.40 0067  02.08.2006

@<TRIPOS>MOLECULE
ASD01913724
  45   46    0    0    0
SMALL
NO_CHARGES


@<TRIPOS>ATOM
   1 O1            -0.0163     1.3508     0.0095 O.3     
   2 C2             0.0021    -0.0041     0.0020 C.ar    
   3 N3             1.1629    -0.6408    -0.0125 N.ar    
   4 C4             1.2330    -1.9556    -0.0202 C.ar    
   5 C5             0.0719    -2.7293    -0.0137 C.ar    
   6 C6            -1.1744    -2.0856     0.0016 C.ar    
   7 C7            -1.1994    -0.7064     0.0154 C.ar    
   8 C8             0.1538    -4.2032    -0.0234 C.2     
   9 N9             1.3565    -4.8112    -0.0386 N.am    
  10 O10           -0.8637    -4.8686    -0.0177 O.2     
  11 C11            1.4378    -6.2739    -0.0482 C.3     
  12 C12            1.2480     2.0168     0.0010 C.3     
  13 C13            1.0303     3.5079     0.0111 C.ar    
  14 C14            0.9419     4.1851     1.2128 C.ar    
  15 C15            0.7418     5.5532     1.2236 C.ar    
  16 C16            0.6298     6.2450     0.0328 C.ar    
  17 C17            0.7186     5.5677    -1.1718 C.ar    
  18 C18            0.9247     4.1988    -1.1815 C.ar    
  19 C19            2.7655    -6.7069    -0.6732 C.3     
  20 F20            0.6093     6.2431    -2.3368 F       
  21 C21            2.9044    -6.0790    -2.0615 C.3     
  22 O22            3.8459    -6.2736     0.1557 O.3     
  23 C23            2.7976    -8.2315    -0.7974 C.3     
  24 C24            1.3543    -6.7988     1.3865 C.3     
  25 H25            2.1983    -2.4397    -0.0320 H       
  26 H26           -2.0916    -2.6557     0.0069 H       
  27 H27           -2.1409    -0.1774     0.0278 H       
  28 H28            2.1684    -4.2803    -0.0432 H       
  29 H29            0.6118    -6.6799    -0.6322 H       
  30 H30            1.8174     1.7267     0.8840 H       
  31 H31            1.8004     1.7363    -0.8958 H       
  32 H32            1.0289     3.6451     2.1441 H       
  33 H33            0.6725     6.0812     2.1632 H       
  34 H34            0.4728     7.3135     0.0415 H       
  35 H35            0.9941     3.6695    -2.1203 H       
  36 H36            2.8816    -4.9929    -1.9730 H       
  37 H37            3.8503    -6.3874    -2.5068 H       
  38 H38            2.0803    -6.4095    -2.6938 H       
  39 H39            3.8221    -6.6336     1.0529 H       
  40 H40            1.9735    -8.5619    -1.4297 H       
  41 H41            3.7435    -8.5399    -1.2427 H       
  42 H42            2.6986    -8.6788     0.1916 H       
  43 H43            2.1803    -6.3928     1.9705 H       
  44 H44            0.4085    -6.4903     1.8318 H       
  45 H45            1.4148    -7.8871     1.3794 H       
@<TRIPOS>BOND
   1    1    2 1
   2    1   12 1
   3    2    3 ar
   4    2    7 ar
   5    3    4 ar
   6    4    5 ar
   7    4   25 1
   8    5    6 ar
   9    5    8 1
  10    6    7 ar
  11    6   26 1
  12    7   27 1
  13    8    9 am
  14    8   10 2
  15    9   11 1
  16    9   28 1
  17   11   19 1
  18   11   24 1
  19   11   29 1
  20   12   13 1
  21   12   30 1
  22   12   31 1
  23   13   14 ar
  24   13   18 ar
  25   14   15 ar
  26   14   32 1
  27   15   16 ar
  28   15   33 1
  29   16   17 ar
  30   16   34 1
  31   17   18 ar
  32   17   20 1
  33   18   35 1
  34   19   21 1
  35   19   22 1
  36   19   23 1
  37   21   36 1
  38   21   37 1
  39   21   38 1
  40   22   39 1
  41   23   40 1
  42   23   41 1
  43   23   42 1
  44   24   43 1
  45   24   44 1
  46   24   45 1

#	End of record

