#	Name: ASD00170489
#	Creating user name:	WinNT
#	Creation time:	15. 06. 2019 18:32

#	Modifying user name:	WinNT
#	Modification time:	15. 06. 2019 18:32

#	Program:	/corina/corina34_cracker 3.40 0067  02.08.2006

@<TRIPOS>MOLECULE
ASD00170489
  46   50    0    0    0
SMALL
NO_CHARGES


@<TRIPOS>ATOM
   1 C1             0.1491     1.2605     0.8660 C.ar    
   2 C2             0.2251     0.0340     1.5339 C.ar    
   3 C3            -0.9266    -0.7079     1.7526 C.ar    
   4 C4            -2.1439    -0.2357     1.3116 C.ar    
   5 C5            -2.2323     0.9828     0.6460 C.ar    
   6 C6            -1.0818     1.7370     0.4266 C.ar    
   7 C7            -3.5440    -0.7894     1.3911 C.3     
   8 C8            -4.4263     0.2325     0.7078 C.2     
   9 C9            -3.6587     1.2525     0.2809 C.2     
  10 S10           -6.1061     0.5508     0.2775 S.3     
  11 C11           -5.6292     2.0733    -0.4633 C.2     
  12 N12           -4.3534     2.2265    -0.3473 N.2     
  13 N13           -6.4902     2.9690    -1.0766 N.pl3   
  14 O14            1.4259    -0.4306     1.9679 O.3     
  15 C15            1.3793     2.0554     0.6316 C.ar    
  16 C16            1.6635     2.5429    -0.6430 C.ar    
  17 C17            2.8077     3.2821    -0.8577 C.ar    
  18 C18            3.6766     3.5404     0.1941 C.ar    
  19 C19            3.3964     3.0557     1.4647 C.ar    
  20 C20            2.2505     2.3212     1.6868 C.ar    
  21 O21            4.8034     4.2686    -0.0205 O.3     
  22 C22            5.9417     3.6016    -0.3455 C.ar    
  23 C23            7.1401     4.2904    -0.4678 C.ar    
  24 C24            8.2959     3.6098    -0.7978 C.ar    
  25 C25            8.2595     2.2433    -1.0062 C.ar    
  26 C26            7.0666     1.5546    -0.8854 C.ar    
  27 C27            5.9090     2.2295    -0.5500 C.ar    
  28 C28            1.4287    -1.6904     2.6424 C.3     
  29 H29           -0.8692    -1.6552     2.2680 H       
  30 H30           -1.1441     2.6837    -0.0895 H       
  31 H31           -3.6013    -1.7450     0.8699 H       
  32 H32           -3.8431    -0.9090     2.4324 H       
  33 H33           -7.4398     2.7760    -1.1210 H       
  34 H34           -6.1434     3.7890    -1.4616 H       
  35 H35            0.9884     2.3417    -1.4616 H       
  36 H36            3.0284     3.6601    -1.8450 H       
  37 H37            4.0744     3.2577     2.2808 H       
  38 H38            2.0329     1.9448     2.6754 H       
  39 H39            7.1690     5.3577    -0.3055 H       
  40 H40            9.2288     4.1454    -0.8935 H       
  41 H41            9.1644     1.7131    -1.2642 H       
  42 H42            7.0408     0.4874    -1.0494 H       
  43 H43            4.9775     1.6911    -0.4555 H       
  44 H44            2.4477    -1.9436     2.9351 H       
  45 H45            0.8003    -1.6283     3.5308 H       
  46 H46            1.0403    -2.4604     1.9757 H       
@<TRIPOS>BOND
   1    1    2 ar
   2    1   15 1
   3    1    6 ar
   4    2    3 ar
   5    2   14 1
   6    3    4 ar
   7    3   29 1
   8    4    5 ar
   9    4    7 1
  10    5    6 ar
  11    5    9 1
  12    6   30 1
  13    7    8 1
  14    7   31 1
  15    7   32 1
  16    8    9 2
  17    8   10 1
  18    9   12 1
  19   10   11 1
  20   11   12 2
  21   11   13 1
  22   13   33 1
  23   13   34 1
  24   14   28 1
  25   15   16 ar
  26   15   20 ar
  27   16   17 ar
  28   16   35 1
  29   17   18 ar
  30   17   36 1
  31   18   19 ar
  32   18   21 1
  33   19   20 ar
  34   19   37 1
  35   20   38 1
  36   21   22 1
  37   22   23 ar
  38   22   27 ar
  39   23   24 ar
  40   23   39 1
  41   24   25 ar
  42   24   40 1
  43   25   26 ar
  44   25   41 1
  45   26   27 ar
  46   26   42 1
  47   27   43 1
  48   28   44 1
  49   28   45 1
  50   28   46 1

#	End of record

