#	Name: ASD01813334
#	Creating user name:	WinNT
#	Creation time:	15. 06. 2019 19:30

#	Modifying user name:	WinNT
#	Modification time:	15. 06. 2019 19:30

#	Program:	/corina/corina34_cracker 3.40 0067  02.08.2006

@<TRIPOS>MOLECULE
ASD01813334
  59   63    0    0    0
SMALL
NO_CHARGES


@<TRIPOS>ATOM
   1 C1            -0.1519     1.4633     0.2656 C.2     
   2 C2            -0.0823     0.0648     0.3222 C.2     
   3 C3             1.1249    -0.5538     0.1767 C.2     
   4 C4             2.2782     0.2219    -0.0275 C.2     
   5 N5             2.1811     1.5860    -0.0781 N.am    
   6 C6             0.9691     2.1932     0.0683 C.2     
   7 C7             3.5200    -0.4114    -0.1772 C.2     
   8 C8             4.6465     0.3329    -0.3756 C.2     
   9 C9             4.5428     1.7353    -0.4276 C.2     
  10 C10            3.2799     2.3426    -0.2732 C.2     
  11 O11            3.1807     3.5572    -0.3173 O.2     
  12 C12            5.7367     2.5569    -0.6389 C.2     
  13 O13            5.6306     3.9009    -0.6878 O.3     
  14 O14            6.8239     2.0275    -0.7704 O.2     
  15 C15            3.6109    -1.9145    -0.1186 C.3     
  16 C16            3.5786    -2.4832    -1.5386 C.3     
  17 N17            3.7800    -3.9374    -1.4883 N.3     
  18 C18            3.4700    -4.5558    -2.7812 C.3     
  19 C19            3.7751    -6.0304    -2.7473 C.ar    
  20 C20            4.5857    -6.5834    -1.7794 C.ar    
  21 C21            5.2082    -5.7431    -0.6940 C.3     
  22 C22            5.1563    -4.2656    -1.0836 C.3     
  23 C23            3.2183    -6.8427    -3.7246 C.ar    
  24 C24            3.4733    -8.1990    -3.7334 C.ar    
  25 C25            4.2885    -8.7527    -2.7636 C.ar    
  26 C26            4.8428    -7.9461    -1.7902 C.ar    
  27 C27            1.9860    -4.3543    -3.0945 C.3     
  28 C28            1.1547    -4.9072    -1.9656 C.ar    
  29 C29            0.7618    -4.0824    -0.9282 C.ar    
  30 C30           -0.0007    -4.5896     0.1072 C.ar    
  31 C31           -0.3706    -5.9215     0.1051 C.ar    
  32 C32            0.0215    -6.7461    -0.9327 C.ar    
  33 C33            0.7803    -6.2379    -1.9704 C.ar    
  34 H34           -1.1048     1.9596     0.3755 H       
  35 H35           -0.9773    -0.5187     0.4801 H       
  36 H36            1.1934    -1.6308     0.2185 H       
  37 H37            0.9038     3.2704     0.0266 H       
  38 H38            5.6063    -0.1487    -0.4910 H       
  39 H39            6.4461     4.4008    -0.8293 H       
  40 H40            4.5427    -2.2034     0.3675 H       
  41 H41            2.7677    -2.3076     0.4495 H       
  42 H42            2.6131    -2.2656    -1.9952 H       
  43 H43            4.3718    -2.0268    -2.1308 H       
  44 H44            4.0688    -4.0824    -3.5593 H       
  45 H45            4.6610    -5.8914     0.2370 H       
  46 H46            6.2464    -6.0441    -0.5538 H       
  47 H47            5.8363    -4.0822    -1.9156 H       
  48 H48            5.4433    -3.6515    -0.2301 H       
  49 H49            2.5814    -6.4112    -4.4825 H       
  50 H50            3.0367    -8.8267    -4.4962 H       
  51 H51            4.4907    -9.8136    -2.7674 H       
  52 H52            5.4797    -8.3786    -1.0328 H       
  53 H53            1.7803    -3.2901    -3.2098 H       
  54 H54            1.7358    -4.8749    -4.0188 H       
  55 H55            1.0509    -3.0418    -0.9266 H       
  56 H56           -0.3070    -3.9453     0.9181 H       
  57 H57           -0.9658    -6.3179     0.9145 H       
  58 H58           -0.2673    -7.7868    -0.9342 H       
  59 H59            1.0867    -6.8821    -2.7813 H       
@<TRIPOS>BOND
   1    1    2 1
   2    1    6 2
   3    1   34 1
   4    2    3 2
   5    2   35 1
   6    3    4 1
   7    3   36 1
   8    4    5 1
   9    4    7 2
  10    5    6 1
  11    5   10 am
  12    6   37 1
  13    7    8 1
  14    7   15 1
  15    8    9 2
  16    8   38 1
  17    9   10 1
  18    9   12 1
  19   10   11 2
  20   12   13 1
  21   12   14 2
  22   13   39 1
  23   15   16 1
  24   15   40 1
  25   15   41 1
  26   16   17 1
  27   16   42 1
  28   16   43 1
  29   17   18 1
  30   17   22 1
  31   18   19 1
  32   18   27 1
  33   18   44 1
  34   19   20 ar
  35   19   23 ar
  36   20   21 1
  37   20   26 ar
  38   21   22 1
  39   21   45 1
  40   21   46 1
  41   22   47 1
  42   22   48 1
  43   23   24 ar
  44   23   49 1
  45   24   25 ar
  46   24   50 1
  47   25   26 ar
  48   25   51 1
  49   26   52 1
  50   27   28 1
  51   27   53 1
  52   27   54 1
  53   28   29 ar
  54   28   33 ar
  55   29   30 ar
  56   29   55 1
  57   30   31 ar
  58   30   56 1
  59   31   32 ar
  60   31   57 1
  61   32   33 ar
  62   32   58 1
  63   33   59 1

#	End of record

