#	Name: ASD01884017
#	Creating user name:	WinNT
#	Creation time:	15. 06. 2019 19:47

#	Modifying user name:	WinNT
#	Modification time:	15. 06. 2019 19:47

#	Program:	/corina/corina34_cracker 3.40 0067  02.08.2006

@<TRIPOS>MOLECULE
ASD01884017
  52   56    0    0    0
SMALL
NO_CHARGES


@<TRIPOS>ATOM
   1 C1            -0.0159     1.3841    -0.0438 C.2     
   2 N2             0.0052    -0.0034    -0.0841 N.pl3   
   3 C3            -1.2265    -0.7877    -0.2127 C.3     
   4 C4            -2.3808    -0.0188     0.4293 C.3     
   5 N5            -2.4145     1.3821     0.0255 N.am    
   6 C6            -1.2856     2.1202    -0.0916 C.2     
   7 C7             1.2711     1.8313     0.0536 C.2     
   8 C8             2.0991     0.7054     0.0851 C.2     
   9 C9             1.2920    -0.4134     0.0031 C.2     
  10 C10            1.7549    -1.8173     0.0096 C.ar    
  11 C11            3.0119    -2.1340     0.5201 C.ar    
  12 C12            0.9296    -2.8273    -0.4910 C.ar    
  13 C13            1.3609    -4.1399    -0.4846 C.ar    
  14 C14            2.6050    -4.4570     0.0145 C.ar    
  15 C15            3.4420    -3.4597     0.5237 C.ar    
  16 C16            3.3547    -5.7581     0.1614 C.3     
  17 N17            4.6460    -5.4219     0.7715 N.am    
  18 C18            4.6936    -4.0950     0.9804 C.2     
  19 C19            5.7070    -6.3761     1.1029 C.3     
  20 C20            7.0678    -6.1808     0.4311 C.3     
  21 C21            6.8945    -5.8577     1.9166 C.3     
  22 O22            5.6336    -3.5026     1.4732 O.2     
  23 O23           -1.3212     3.3291    -0.2286 O.2     
  24 C24           -3.7071     2.0086    -0.2624 C.3     
  25 C25           -4.2731     2.6224     1.0197 C.3     
  26 C26           -5.6231     3.2767     0.7191 C.3     
  27 C27           -6.1891     3.8905     2.0012 C.3     
  28 H28           -1.4429    -0.9556    -1.2677 H       
  29 H29           -1.1023    -1.7461     0.2914 H       
  30 H30           -3.3207    -0.4907     0.1431 H       
  31 H31           -2.2787    -0.0706     1.5133 H       
  32 H32            1.5896     2.8624     0.0974 H       
  33 H33            3.1765     0.7093     0.1597 H       
  34 H34            3.6503    -1.3556     0.9111 H       
  35 H35           -0.0464    -2.5819    -0.8830 H       
  36 H36            0.7210    -4.9191    -0.8714 H       
  37 H37            2.8008    -6.4385     0.8082 H       
  38 H38            3.5099    -6.2134    -0.8167 H       
  39 H39            5.3787    -7.3991     1.2868 H       
  40 H40            7.6348    -7.0754     0.1735 H       
  41 H41            7.1735    -5.3424    -0.2573 H       
  42 H42            6.8862    -4.8067     2.2054 H       
  43 H43            7.3476    -6.5396     2.6361 H       
  44 H44           -3.5737     2.7895    -1.0110 H       
  45 H45           -4.3991     1.2564    -0.6414 H       
  46 H46           -4.4065     1.8414     1.7683 H       
  47 H47           -3.5812     3.3745     1.3986 H       
  48 H48           -5.4897     4.0577    -0.0295 H       
  49 H49           -6.3150     2.5246     0.3401 H       
  50 H50           -6.3225     3.1096     2.7497 H       
  51 H51           -5.4972     4.6427     2.3801 H       
  52 H52           -7.1509     4.3567     1.7870 H       
@<TRIPOS>BOND
   1    1    2 1
   2    1    7 2
   3    1    6 1
   4    2    3 1
   5    2    9 1
   6    3    4 1
   7    3   28 1
   8    3   29 1
   9    4    5 1
  10    4   30 1
  11    4   31 1
  12    5    6 am
  13    5   24 1
  14    6   23 2
  15    7    8 1
  16    7   32 1
  17    8    9 2
  18    8   33 1
  19    9   10 1
  20   10   11 ar
  21   10   12 ar
  22   11   15 ar
  23   11   34 1
  24   12   13 ar
  25   12   35 1
  26   13   14 ar
  27   13   36 1
  28   14   15 ar
  29   14   16 1
  30   15   18 1
  31   16   17 1
  32   16   37 1
  33   16   38 1
  34   17   18 am
  35   17   19 1
  36   18   22 2
  37   19   20 1
  38   19   21 1
  39   19   39 1
  40   20   21 1
  41   20   40 1
  42   20   41 1
  43   21   42 1
  44   21   43 1
  45   24   25 1
  46   24   44 1
  47   24   45 1
  48   25   26 1
  49   25   46 1
  50   25   47 1
  51   26   27 1
  52   26   48 1
  53   26   49 1
  54   27   50 1
  55   27   51 1
  56   27   52 1

#	End of record

