#	Name: ASD01811315
#	Creating user name:	WinNT
#	Creation time:	15. 06. 2019 19:26

#	Modifying user name:	WinNT
#	Modification time:	15. 06. 2019 19:26

#	Program:	/corina/corina34_cracker 3.40 0067  02.08.2006

@<TRIPOS>MOLECULE
ASD01811315
  54   56    0    0    0
SMALL
NO_CHARGES


@<TRIPOS>ATOM
   1 N1             6.9698    -2.6600    -1.6062 N.am    
   2 C2             7.0776    -4.0035    -1.6099 C.2     
   3 O3             6.3989    -4.6699    -0.8526 O.2     
   4 N4             7.9377    -4.6082    -2.4531 N.am    
   5 C5             8.0549    -6.0685    -2.4571 C.3     
   6 C6             9.0920    -6.4941    -3.4983 C.3     
   7 O7            10.3806    -6.0125    -3.1115 O.3     
   8 C8            11.4272    -6.3573    -4.0214 C.3     
   9 C9             6.0062    -2.0401    -0.8114 C.ar    
  10 C10            5.9654    -0.6501    -0.7191 C.ar    
  11 C11            4.9790    -0.0800     0.0917 C.ar    
  12 C12            4.1007    -0.9439     0.7548 C.ar    
  13 N13            4.2229    -2.2469     0.6013 N.ar    
  14 N14            5.1242    -2.7700    -0.1467 N.ar    
  15 C15            4.8681     1.3895     0.2439 C.2     
  16 O16            3.7798     1.9264     0.1815 O.2     
  17 N17            5.9743     2.1309     0.4517 N.am    
  18 C18            7.3055     1.5092     0.4383 C.3     
  19 C19            8.0299     1.8672     1.7398 C.3     
  20 C20            8.0482     3.3883     1.9070 C.3     
  21 C21            6.6125     3.9110     1.9938 C.3     
  22 C22            5.8724     3.5771     0.6897 C.3     
  23 C23            8.7899     3.7458     3.1692 C.ar    
  24 C24            9.9211     4.5396     3.1019 C.ar    
  25 C25           10.6048     4.8706     4.2534 C.ar    
  26 C26           10.1525     4.4031     5.4889 C.ar    
  27 C27            9.0099     3.6028     5.5496 C.ar    
  28 C28            8.3331     3.2834     4.3907 C.ar    
  29 C29           10.8575     4.7424     6.6883 C.1     
  30 N30           11.4167     5.0115     7.6397 N.1     
  31 H31            7.5652    -2.1242    -2.1533 H       
  32 H32            8.4792    -4.0765    -3.0573 H       
  33 H33            8.3686    -6.4106    -1.4709 H       
  34 H34            7.0894    -6.5098    -2.7046 H       
  35 H35            9.1154    -7.5818    -3.5643 H       
  36 H36            8.8246    -6.0768    -4.4691 H       
  37 H37           11.4990    -7.4422    -4.0982 H       
  38 H38           11.2082    -5.9372    -5.0031 H       
  39 H39           12.3726    -5.9554    -3.6569 H       
  40 H40            6.6719    -0.0340    -1.2554 H       
  41 H41            3.3249    -0.5440     1.3909 H       
  42 H42            7.2025     0.4267     0.3633 H       
  43 H43            7.8753     1.8839    -0.4120 H       
  44 H44            7.5079     1.4148     2.5830 H       
  45 H45            9.0530     1.4931     1.7015 H       
  46 H46            8.5486     3.8417     1.0513 H       
  47 H47            6.1038     3.4393     2.8346 H       
  48 H48            6.6267     4.9915     2.1363 H       
  49 H49            6.3277     4.1171    -0.1406 H       
  50 H50            4.8235     3.8595     0.7805 H       
  51 H51           10.2699     4.9005     2.1456 H       
  52 H52           11.4881     5.4898     4.1994 H       
  53 H53            8.6546     3.2378     6.5019 H       
  54 H54            7.4468     2.6679     4.4366 H       
@<TRIPOS>BOND
   1    1    2 am
   2    1    9 1
   3    1   31 1
   4    2    3 2
   5    2    4 am
   6    4    5 1
   7    4   32 1
   8    5    6 1
   9    5   33 1
  10    5   34 1
  11    6    7 1
  12    6   35 1
  13    6   36 1
  14    7    8 1
  15    8   37 1
  16    8   38 1
  17    8   39 1
  18    9   10 ar
  19    9   14 ar
  20   10   11 ar
  21   10   40 1
  22   11   12 ar
  23   11   15 1
  24   12   13 ar
  25   12   41 1
  26   13   14 ar
  27   15   16 2
  28   15   17 am
  29   17   18 1
  30   17   22 1
  31   18   19 1
  32   18   42 1
  33   18   43 1
  34   19   20 1
  35   19   44 1
  36   19   45 1
  37   20   21 1
  38   20   23 1
  39   20   46 1
  40   21   22 1
  41   21   47 1
  42   21   48 1
  43   22   49 1
  44   22   50 1
  45   23   24 ar
  46   23   28 ar
  47   24   25 ar
  48   24   51 1
  49   25   26 ar
  50   25   52 1
  51   26   27 ar
  52   26   29 1
  53   27   28 ar
  54   27   53 1
  55   28   54 1
  56   29   30 3

#	End of record

