#	Name: ASD04560196
#	Creating user name:	WinNT
#	Creation time:	15. 06. 2019 20:49

#	Modifying user name:	WinNT
#	Modification time:	15. 06. 2019 20:49

#	Program:	/corina/corina34_cracker 3.40 0067  02.08.2006

@<TRIPOS>MOLECULE
ASD04560196
  37   39    0    0    0
SMALL
NO_CHARGES


@<TRIPOS>ATOM
   1 C1            -0.9872     6.5602    -2.3794 C.ar    
   2 C2            -2.1140     7.0922    -2.9779 C.ar    
   3 C3            -3.3482     6.9691    -2.3644 C.ar    
   4 C4            -3.4578     6.3139    -1.1504 C.ar    
   5 C5            -2.3340     5.7806    -0.5475 C.ar    
   6 C6            -1.0945     5.9019    -1.1616 C.ar    
   7 N7             0.0445     5.3621    -0.5539 N.am    
   8 C8             1.2282     5.9985    -0.6554 C.2     
   9 N9             2.3049     5.5285     0.0050 N.am    
  10 O10            1.3247     6.9968    -1.3429 O.2     
  11 C11            3.5564     6.1320    -0.1761 C.ar    
  12 C12            3.6463     7.4997    -0.3601 C.ar    
  13 C13            4.7133     5.3567    -0.1656 C.ar    
  14 C14            5.9429     5.9376    -0.3419 C.ar    
  15 C15            4.8892     8.1008    -0.5402 C.ar    
  16 S16            5.3358     9.7863    -0.7940 S.3     
  17 C17            6.0563     7.3305    -0.5370 C.ar    
  18 N18            7.1702     8.0672    -0.7248 N.2     
  19 C19            7.0338     9.3383    -0.8761 C.2     
  20 N20            8.0777    10.2275    -1.0770 N.am    
  21 C21            9.3472     9.7771    -1.1234 C.2     
  22 C22           10.4822    10.7440    -1.3419 C.3     
  23 O23            9.5760     8.5937    -0.9894 O.2     
  24 Cl24          -5.0079     6.1622    -0.3837 Cl      
  25 Cl25          -1.9806     7.9158    -4.5002 Cl      
  26 H26           -0.0248     6.6526    -2.8609 H       
  27 H27           -4.2274     7.3854    -2.8336 H       
  28 H28           -2.4200     5.2699     0.4002 H       
  29 H29           -0.0178     4.5299    -0.0595 H       
  30 H30            2.2134     4.7724     0.6057 H       
  31 H31            2.7504     8.1028    -0.3644 H       
  32 H32            4.6414     4.2894    -0.0170 H       
  33 H33            6.8316     5.3241    -0.3311 H       
  34 H34            7.8947    11.1740    -1.1842 H       
  35 H35           10.0851    11.7544    -1.4397 H       
  36 H36           11.1638    10.7022    -0.4923 H       
  37 H37           11.0188    10.4749    -2.2517 H       
@<TRIPOS>BOND
   1    1    2 ar
   2    1    6 ar
   3    1   26 1
   4    2    3 ar
   5    2   25 1
   6    3    4 ar
   7    3   27 1
   8    4    5 ar
   9    4   24 1
  10    5    6 ar
  11    5   28 1
  12    6    7 1
  13    7    8 am
  14    7   29 1
  15    8    9 am
  16    8   10 2
  17    9   11 1
  18    9   30 1
  19   11   13 ar
  20   11   12 ar
  21   12   15 ar
  22   12   31 1
  23   13   14 ar
  24   13   32 1
  25   14   17 ar
  26   14   33 1
  27   15   17 ar
  28   15   16 1
  29   16   19 1
  30   17   18 1
  31   18   19 2
  32   19   20 1
  33   20   21 am
  34   20   34 1
  35   21   22 1
  36   21   23 2
  37   22   35 1
  38   22   36 1
  39   22   37 1

#	End of record

