#	Name: ASD01000106
#	Creating user name:	WinNT
#	Creation time:	15. 06. 2019 18:54

#	Modifying user name:	WinNT
#	Modification time:	15. 06. 2019 18:54

#	Program:	/corina/corina34_cracker 3.40 0067  02.08.2006

@<TRIPOS>MOLECULE
ASD01000106
  64   68    0    0    0
SMALL
NO_CHARGES


@<TRIPOS>ATOM
   1 C1            -0.0167     1.3795     0.0096 C.ar    
   2 C2             0.0021    -0.0041     0.0020 C.ar    
   3 C3            -1.1846    -0.7138     0.0100 C.ar    
   4 C4            -2.3920    -0.0432     0.0251 C.ar    
   5 C5            -2.4142     1.3445     0.0328 C.ar    
   6 C6            -1.2230     2.0551     0.0305 C.ar    
   7 C7            -3.4857     1.9415     2.4200 C.ar    
   8 C8            -4.1463     2.3097     1.2531 C.ar    
   9 O9            -3.6011     2.0059     0.0477 O.3     
  10 C10           -5.3570     2.9839     1.3090 C.ar    
  11 C11           -4.0323     2.2460     3.6533 C.ar    
  12 O12           -3.3891     1.8880     4.7933 O.3     
  13 C13           -5.2541     2.9271     3.7169 C.ar    
  14 Cl14           1.4750     2.2674     0.0002 Cl      
  15 C15           -5.9202     3.2977     2.5357 C.ar    
  16 C16           -5.8712     3.2715     5.0090 C.2     
  17 C17           -7.1066     3.9606     4.9776 C.2     
  18 C18           -7.6697     4.2736     3.7796 C.2     
  19 O19           -7.0974     3.9544     2.6078 O.3     
  20 O20           -5.3379     2.9738     6.0657 O.2     
  21 C21           -8.9578     4.9921     3.7674 C.ar    
  22 C22           -9.5617     5.3277     2.5522 C.ar    
  23 C23           -9.5809     5.3343     4.9710 C.ar    
  24 C24          -10.7835     6.0052     4.9551 C.ar    
  25 C25          -11.3779     6.3417     3.7445 C.ar    
  26 C26          -10.7643     5.9987     2.5454 C.ar    
  27 C27          -13.9738     6.4218     1.9079 C.ar    
  28 C28          -13.1099     7.3122     2.5283 C.ar    
  29 O29          -12.5635     7.0026     3.7333 O.3     
  30 C30          -14.5235     6.7368     0.6788 C.ar    
  31 C31          -14.2163     7.9413     0.0710 C.ar    
  32 C32          -13.3601     8.8326     0.6912 C.ar    
  33 C33          -12.8041     8.5198     1.9163 C.ar    
  34 Cl34         -15.5992     5.6204    -0.1023 Cl      
  35 C35            1.3179    -0.7385    -0.0155 C.3     
  36 F36            1.0821    -2.1175    -0.0205 F       
  37 F37            2.0347    -0.3838    -1.1633 F       
  38 F38            2.0582    -0.3961     1.1211 F       
  39 N39          -11.8878     9.4747     2.5791 N.pl3   
  40 O40          -11.6238    10.5367     2.0442 O.2     
  41 O41          -11.3976     9.1986     3.6594 O.2     
  42 N42           -1.2431     3.5351     0.0392 N.pl3   
  43 O43           -1.2458     4.1380     1.0975 O.2     
  44 O44           -1.2570     4.1501    -1.0120 O.2     
  45 C45          -14.8160     8.2825    -1.2687 C.3     
  46 F46          -14.3612     9.5412    -1.6763 F       
  47 F47          -14.4328     7.3209    -2.2097 F       
  48 F48          -16.2110     8.3023    -1.1637 F       
  49 N49           -3.6616    -0.8041     0.0327 N.pl3   
  50 O50           -3.6417    -2.0220     0.0255 O.2     
  51 O51           -4.7261    -0.2125     0.0460 O.2     
  52 N52          -14.3021     5.1331     2.5579 N.pl3   
  53 O53          -15.2551     5.0571     3.3125 O.2     
  54 O54          -13.6191     4.1488     2.3382 O.2     
  55 H55           -1.1673    -1.7936     0.0040 H       
  56 H56           -2.5459     1.4126     2.3631 H       
  57 H57           -5.8609     3.2648     0.3960 H       
  58 H58           -2.7728     2.5560     5.1237 H       
  59 H59           -7.5995     4.2354     5.8984 H       
  60 H60           -9.0856     5.0616     1.6201 H       
  61 H61           -9.1201     5.0725     5.9120 H       
  62 H62          -11.2656     6.2699     5.8846 H       
  63 H63          -11.2296     6.2620     1.6070 H       
  64 H64          -13.1216     9.7719     0.2146 H       
@<TRIPOS>BOND
   1    1    2 ar
   2    1   14 1
   3    1    6 ar
   4    2   35 1
   5    2    3 ar
   6    3    4 ar
   7    3   55 1
   8    4   49 1
   9    4    5 ar
  10    5    6 ar
  11    5    9 1
  12    6   42 1
  13    7    8 ar
  14    7   11 ar
  15    7   56 1
  16    8    9 1
  17    8   10 ar
  18   10   15 ar
  19   10   57 1
  20   11   12 1
  21   11   13 ar
  22   12   58 1
  23   13   15 ar
  24   13   16 1
  25   15   19 1
  26   16   17 1
  27   16   20 2
  28   17   18 2
  29   17   59 1
  30   18   19 1
  31   18   21 1
  32   21   22 ar
  33   21   23 ar
  34   22   26 ar
  35   22   60 1
  36   23   24 ar
  37   23   61 1
  38   24   25 ar
  39   24   62 1
  40   25   26 ar
  41   25   29 1
  42   26   63 1
  43   27   52 1
  44   27   28 ar
  45   27   30 ar
  46   28   29 1
  47   28   33 ar
  48   30   31 ar
  49   30   34 1
  50   31   45 1
  51   31   32 ar
  52   32   33 ar
  53   32   64 1
  54   33   39 1
  55   35   36 1
  56   35   37 1
  57   35   38 1
  58   39   40 2
  59   39   41 2
  60   42   43 2
  61   42   44 2
  62   45   46 1
  63   45   47 1
  64   45   48 1
  65   49   50 2
  66   49   51 2
  67   52   53 2
  68   52   54 2

#	End of record

