#	Name: ASD01028178
#	Creating user name:	WinNT
#	Creation time:	15. 06. 2019 18:56

#	Modifying user name:	WinNT
#	Modification time:	15. 06. 2019 18:56

#	Program:	/corina/corina34_cracker 3.40 0067  02.08.2006

@<TRIPOS>MOLECULE
ASD01028178
  52   55    0    0    0
SMALL
NO_CHARGES


@<TRIPOS>ATOM
   1 C1            -0.8273     1.3724    -0.8126 C.ar    
   2 C2            -0.3629     0.0524    -0.6782 C.ar    
   3 C3             0.9161    -0.2632    -1.1507 C.ar    
   4 C4             1.6691     0.7421    -1.7312 C.ar    
   5 C5             1.1433     2.0181    -1.8278 C.ar    
   6 N6            -0.0642     2.2958    -1.3766 N.ar    
   7 N7            -2.0906     1.7071    -0.3582 N.pl3   
   8 N8            -5.4391     5.3072    -0.8033 N.pl3   
   9 N9            -5.2410     6.6878    -0.6798 N.2     
  10 C10           -3.9903     6.9314    -0.4162 C.2     
  11 C11           -3.2922     5.7009    -0.3523 C.ar    
  12 C12           -1.9545     5.3624    -0.1069 C.ar    
  13 C13           -1.5721     4.0548    -0.1112 C.ar    
  14 C14           -2.5020     3.0428    -0.3578 C.ar    
  15 C15           -3.8270     3.3535    -0.6020 C.ar    
  16 C16           -4.2339     4.6841    -0.6015 C.ar    
  17 C17           -1.2073    -0.9802    -0.0508 C.2     
  18 O18           -2.2700    -0.6724     0.4541 O.2     
  19 N19           -0.8016    -2.2654    -0.0368 N.am    
  20 C20           -1.6430    -3.2586     0.4744 C.ar    
  21 C21           -1.6631    -4.5203    -0.1060 C.ar    
  22 C22           -2.4951    -5.4989     0.4012 C.ar    
  23 C23           -3.3077    -5.2238     1.4858 C.ar    
  24 C24           -3.2904    -3.9686     2.0657 C.ar    
  25 C25           -2.4561    -2.9873     1.5672 C.ar    
  26 C26           -4.2143    -6.2941     2.0366 C.3     
  27 C27           -3.3742    -7.4874     2.4962 C.3     
  28 C28           -4.9996    -5.7355     3.2249 C.3     
  29 C29           -5.1897    -6.7462     0.9480 C.3     
  30 H30            1.3058    -1.2667    -1.0640 H       
  31 H31            2.6601     0.5323    -2.1057 H       
  32 H32            1.7328     2.8013    -2.2813 H       
  33 H33           -2.6908     1.0147    -0.0399 H       
  34 H34           -6.2825     4.8677    -0.9941 H       
  35 H35           -3.5565     7.9097    -0.2706 H       
  36 H36           -1.2273     6.1376     0.0846 H       
  37 H37           -0.5402     3.7986     0.0781 H       
  38 H38           -4.5425     2.5673    -0.7926 H       
  39 H39            0.0739    -2.5014    -0.3812 H       
  40 H40           -1.0289    -4.7357    -0.9533 H       
  41 H41           -2.5114    -6.4801    -0.0499 H       
  42 H42           -3.9265    -3.7568     2.9125 H       
  43 H43           -2.4396    -2.0086     2.0236 H       
  44 H44           -2.6793    -7.1653     3.2717 H       
  45 H45           -4.0300    -8.2616     2.8946 H       
  46 H46           -2.8148    -7.8854     1.6496 H       
  47 H47           -5.5981    -4.8854     2.8976 H       
  48 H48           -5.6554    -6.5096     3.6234 H       
  49 H49           -4.3047    -5.4134     4.0005 H       
  50 H50           -4.6303    -7.1443     0.1014 H       
  51 H51           -5.8455    -7.5204     1.3464 H       
  52 H52           -5.7883    -5.8961     0.6206 H       
@<TRIPOS>BOND
   1    1    2 ar
   2    1    6 ar
   3    1    7 1
   4    2    3 ar
   5    2   17 1
   6    3    4 ar
   7    3   30 1
   8    4    5 ar
   9    4   31 1
  10    5    6 ar
  11    5   32 1
  12    7   14 1
  13    7   33 1
  14    8    9 1
  15    8   16 1
  16    8   34 1
  17    9   10 2
  18   10   11 1
  19   10   35 1
  20   11   12 ar
  21   11   16 ar
  22   12   13 ar
  23   12   36 1
  24   13   14 ar
  25   13   37 1
  26   14   15 ar
  27   15   16 ar
  28   15   38 1
  29   17   18 2
  30   17   19 am
  31   19   20 1
  32   19   39 1
  33   20   21 ar
  34   20   25 ar
  35   21   22 ar
  36   21   40 1
  37   22   23 ar
  38   22   41 1
  39   23   24 ar
  40   23   26 1
  41   24   25 ar
  42   24   42 1
  43   25   43 1
  44   26   27 1
  45   26   29 1
  46   26   28 1
  47   27   44 1
  48   27   45 1
  49   27   46 1
  50   28   47 1
  51   28   48 1
  52   28   49 1
  53   29   50 1
  54   29   51 1
  55   29   52 1

#	End of record

