#	Name: ASD01913955
#	Creating user name:	WinNT
#	Creation time:	15. 06. 2019 20:02

#	Modifying user name:	WinNT
#	Modification time:	15. 06. 2019 20:02

#	Program:	/corina/corina34_cracker 3.40 0067  02.08.2006

@<TRIPOS>MOLECULE
ASD01913955
  37   40    0    0    0
SMALL
NO_CHARGES


@<TRIPOS>ATOM
   1 C1            -0.0163     1.3809     0.0116 C.ar    
   2 C2             0.0026    -0.0025    -0.0030 C.ar    
   3 C3             1.2095    -0.6780    -0.0103 C.ar    
   4 C4             2.3936     0.0395    -0.0033 C.ar    
   5 C5             2.3809     1.4476    -0.0068 C.ar    
   6 C6             1.1617     2.1042     0.0096 C.ar    
   7 C7             3.7208    -0.6027     0.0339 C.2     
   8 C8             4.8316     0.1696     0.3145 C.2     
   9 C9             4.7169     1.6414     0.5879 C.3     
  10 O10            3.5409     2.1469    -0.0519 O.3     
  11 N11            4.1529    -1.8605    -0.1546 N.pl3   
  12 N12            5.4364    -1.9060    -0.0137 N.2     
  13 C13            5.9160    -0.7040     0.2727 C.2     
  14 C14            7.3328    -0.3563     0.5034 C.2     
  15 N15            8.2815    -1.3108     0.4304 N.am    
  16 C16            9.6268    -0.9658     0.5408 C.ar    
  17 C17           10.5935    -1.9644     0.5730 C.ar    
  18 C18           11.9261    -1.6078     0.6829 C.ar    
  19 C19           12.2469    -0.2594     0.7571 C.ar    
  20 C20           11.2347     0.6795     0.7193 C.ar    
  21 N21            9.9733     0.3101     0.6086 N.ar    
  22 O22            7.6433     0.7909     0.7592 O.2     
  23 C23           11.5763     2.1451     0.7994 C.3     
  24 H24           -0.9624     1.9017     0.0202 H       
  25 H25           -0.9253    -0.5551    -0.0085 H       
  26 H26            1.2282    -1.7577    -0.0209 H       
  27 H27            1.1312     3.1837     0.0201 H       
  28 H28            4.6474     1.8080     1.6628 H       
  29 H29            5.5945     2.1545     0.1946 H       
  30 H30            3.5869    -2.6198    -0.3645 H       
  31 H31            8.0276    -2.2380     0.3009 H       
  32 H32           10.3083    -3.0044     0.5134 H       
  33 H33           12.6990    -2.3616     0.7107 H       
  34 H34           13.2773     0.0524     0.8438 H       
  35 H35           11.7327     2.5372    -0.2056 H       
  36 H36           10.7571     2.6836     1.2760 H       
  37 H37           12.4860     2.2747     1.3857 H       
@<TRIPOS>BOND
   1    1    2 ar
   2    1    6 ar
   3    1   24 1
   4    2    3 ar
   5    2   25 1
   6    3    4 ar
   7    3   26 1
   8    4    5 ar
   9    4    7 1
  10    5    6 ar
  11    5   10 1
  12    6   27 1
  13    7    8 2
  14    7   11 1
  15    8    9 1
  16    8   13 1
  17    9   10 1
  18    9   28 1
  19    9   29 1
  20   11   12 1
  21   11   30 1
  22   12   13 2
  23   13   14 1
  24   14   15 am
  25   14   22 2
  26   15   16 1
  27   15   31 1
  28   16   17 ar
  29   16   21 ar
  30   17   18 ar
  31   17   32 1
  32   18   19 ar
  33   18   33 1
  34   19   20 ar
  35   19   34 1
  36   20   21 ar
  37   20   23 1
  38   23   35 1
  39   23   36 1
  40   23   37 1

#	End of record

