#	Name: ASD01813624
#	Creating user name:	WinNT
#	Creation time:	15. 06. 2019 19:30

#	Modifying user name:	WinNT
#	Modification time:	15. 06. 2019 19:30

#	Program:	/corina/corina34_cracker 3.40 0067  02.08.2006

@<TRIPOS>MOLECULE
ASD01813624
  46   49    0    0    0
SMALL
NO_CHARGES


@<TRIPOS>ATOM
   1 C1             0.0983     1.4756     0.3579 C.ar    
   2 C2             0.0802     0.0884     0.3501 C.ar    
   3 C3             1.2503    -0.6305     0.2189 C.ar    
   4 C4             2.4674     0.0383     0.0924 C.ar    
   5 C5             2.4810     1.4430     0.1008 C.ar    
   6 C6             1.2895     2.1561     0.2343 C.ar    
   7 N7             3.6443    -0.6677    -0.0389 N.pl3   
   8 C8             4.8373    -0.0729    -0.1629 C.2     
   9 C9             4.9773     1.3005    -0.1684 C.2     
  10 C10            3.7748     2.1383    -0.0338 C.2     
  11 C11            6.3050     1.9157    -0.3057 C.2     
  12 O12            6.4288     3.2581    -0.3097 O.3     
  13 O13            7.2916     1.2140    -0.4158 O.2     
  14 O14            3.8451     3.3548    -0.0332 O.2     
  15 F15            1.2172    -1.9811     0.2135 F       
  16 C16            3.5871    -2.1316    -0.0425 C.3     
  17 C17            3.4437    -2.6253    -1.4591 C.ar    
  18 C18            4.5585    -2.7700    -2.2639 C.ar    
  19 N19            4.4462    -3.2002    -3.5042 N.ar    
  20 C20            3.2680    -3.5105    -4.0286 C.ar    
  21 C21            2.1029    -3.3889    -3.2741 C.ar    
  22 C22            2.1920    -2.9444    -1.9665 C.ar    
  23 C23            3.1900    -3.9906    -5.4301 C.ar    
  24 C24            4.3500    -4.1149    -6.1923 C.ar    
  25 C25            4.2716    -4.5624    -7.4955 C.ar    
  26 C26            3.0446    -4.8869    -8.0455 C.ar    
  27 C27            1.8899    -4.7654    -7.2935 C.ar    
  28 C28            1.9571    -4.3244    -5.9875 C.ar    
  29 C29            2.9653    -5.3741    -9.4693 C.3     
  30 F30            3.0824    -6.7680    -9.4925 F       
  31 F31            1.7359    -5.0002   -10.0224 F       
  32 F32            4.0041    -4.8064   -10.2150 F       
  33 H33           -0.8264     2.0246     0.4570 H       
  34 H34           -0.8598    -0.4342     0.4482 H       
  35 H35            1.3010     3.2360     0.2403 H       
  36 H36            5.7195    -0.6879    -0.2616 H       
  37 H37            7.3221     3.6163    -0.4025 H       
  38 H38            4.5035    -2.5321     0.3909 H       
  39 H39            2.7317    -2.4632     0.5461 H       
  40 H40            5.5345    -2.5268    -1.8707 H       
  41 H41            1.1442    -3.6416    -3.7025 H       
  42 H42            1.3064    -2.8404    -1.3572 H       
  43 H43            5.3085    -3.8611    -5.7642 H       
  44 H44            5.1700    -4.6592    -8.0872 H       
  45 H45            0.9345    -5.0202    -7.7279 H       
  46 H46            1.0550    -4.2299    -5.4012 H       
@<TRIPOS>BOND
   1    1    2 ar
   2    1    6 ar
   3    1   33 1
   4    2    3 ar
   5    2   34 1
   6    3    4 ar
   7    3   15 1
   8    4    5 ar
   9    4    7 1
  10    5    6 ar
  11    5   10 1
  12    6   35 1
  13    7    8 1
  14    7   16 1
  15    8    9 2
  16    8   36 1
  17    9   10 1
  18    9   11 1
  19   10   14 2
  20   11   12 1
  21   11   13 2
  22   12   37 1
  23   16   17 1
  24   16   38 1
  25   16   39 1
  26   17   18 ar
  27   17   22 ar
  28   18   19 ar
  29   18   40 1
  30   19   20 ar
  31   20   21 ar
  32   20   23 1
  33   21   22 ar
  34   21   41 1
  35   22   42 1
  36   23   24 ar
  37   23   28 ar
  38   24   25 ar
  39   24   43 1
  40   25   26 ar
  41   25   44 1
  42   26   27 ar
  43   26   29 1
  44   27   28 ar
  45   27   45 1
  46   28   46 1
  47   29   30 1
  48   29   31 1
  49   29   32 1

#	End of record

