#	Name: ASD01884898
#	Creating user name:	WinNT
#	Creation time:	15. 06. 2019 19:49

#	Modifying user name:	WinNT
#	Modification time:	15. 06. 2019 19:49

#	Program:	/corina/corina34_cracker 3.40 0067  02.08.2006

@<TRIPOS>MOLECULE
ASD01884898
  44   49    0    0    0
SMALL
NO_CHARGES


@<TRIPOS>ATOM
   1 N1            -0.0157     1.3097     0.0092 N.ar    
   2 C2             0.0021    -0.0041     0.0020 C.ar    
   3 C3             1.2056    -0.7162    -0.0128 C.ar    
   4 C4             2.4101    -0.0134    -0.0206 C.ar    
   5 C5             2.3539     1.3802    -0.0130 C.ar    
   6 C6             1.1018     2.0258     0.0024 C.ar    
   7 C7             3.3626     2.4425    -0.0167 C.2     
   8 C8             2.7000     3.6097    -0.0043 C.2     
   9 N9             1.3487     3.3797     0.0073 N.pl3   
  10 C10            1.2011    -2.1981    -0.0198 C.2     
  11 C11            0.6841    -2.8898    -1.1000 C.2     
  12 C12            1.7312    -2.9199     1.0771 C.2     
  13 C13            1.7262    -4.2659     1.0690 C.2     
  14 N14            1.2132    -4.9577     0.0093 N.pl3   
  15 C15            0.6939    -4.2959    -1.0769 C.2     
  16 Cl16           0.0325    -2.0354    -2.4635 Cl      
  17 C17            1.0793    -6.2846    -0.2652 C.2     
  18 N18            0.5112    -6.3888    -1.4389 N.2     
  19 N19            0.2796    -5.2216    -1.9283 N.2     
  20 C20            0.3634     4.3768     0.0210 C.ar    
  21 C21            1.5082    -7.4253     0.6213 C.3     
  22 C22            0.4273    -8.4027     1.0874 C.3     
  23 C23            1.4488    -8.8370     0.0344 C.3     
  24 C24            0.4327     5.4097     0.9462 C.ar    
  25 C25           -0.5391     6.3910     0.9582 C.ar    
  26 C26           -1.5819     6.3452     0.0483 C.ar    
  27 C27           -1.6530     5.3156    -0.8749 C.ar    
  28 C28           -0.6798     4.3357    -0.8941 C.ar    
  29 F29           -2.5315     7.3061     0.0616 F       
  30 H30           -0.9324    -0.5454     0.0080 H       
  31 H31            3.3573    -0.5322    -0.0317 H       
  32 H32            4.4345     2.3116    -0.0269 H       
  33 H33            3.1629     4.5854    -0.0031 H       
  34 H34            2.1415    -2.3885     1.9231 H       
  35 H35            2.1333    -4.8057     1.9112 H       
  36 H36            2.3182    -7.2022     1.3156 H       
  37 H37            0.5265    -8.8230     2.0882 H       
  38 H38           -0.5940    -8.2207     0.7528 H       
  39 H39            1.0996    -8.9407    -0.9929 H       
  40 H40            2.2201    -9.5429     0.3425 H       
  41 H41            1.2457     5.4455     1.6562 H       
  42 H42           -0.4857     7.1945     1.6779 H       
  43 H43           -2.4673     5.2814    -1.5835 H       
  44 H44           -0.7354     3.5330    -1.6145 H       
@<TRIPOS>BOND
   1    1    2 ar
   2    1    6 ar
   3    2    3 ar
   4    2   30 1
   5    3    4 ar
   6    3   10 1
   7    4    5 ar
   8    4   31 1
   9    5    6 ar
  10    5    7 1
  11    6    9 1
  12    7    8 2
  13    7   32 1
  14    8    9 1
  15    8   33 1
  16    9   20 1
  17   10   11 2
  18   10   12 1
  19   11   16 1
  20   11   15 1
  21   12   13 2
  22   12   34 1
  23   13   14 1
  24   13   35 1
  25   14   15 1
  26   14   17 1
  27   15   19 2
  28   17   18 2
  29   17   21 1
  30   18   19 1
  31   20   24 ar
  32   20   28 ar
  33   21   22 1
  34   21   23 1
  35   21   36 1
  36   22   23 1
  37   22   37 1
  38   22   38 1
  39   23   39 1
  40   23   40 1
  41   24   25 ar
  42   24   41 1
  43   25   26 ar
  44   25   42 1
  45   26   27 ar
  46   26   29 1
  47   27   28 ar
  48   27   43 1
  49   28   44 1

#	End of record

