#	Name: ASD08151024
#	Creating user name:	WinNT
#	Creation time:	15. 06. 2019 21:17

#	Modifying user name:	WinNT
#	Modification time:	15. 06. 2019 21:17

#	Program:	/corina/corina34_cracker 3.40 0067  02.08.2006

@<TRIPOS>MOLECULE
ASD08151024
  69   70    0    0    0
SMALL
NO_CHARGES


@<TRIPOS>ATOM
   1 N1             4.0426     2.9873     2.9487 N.2     
   2 C2             5.0168     2.2925     3.4604 C.2     
   3 N3             6.0640     2.2467     2.5890 N.pl3   
   4 C4             5.7031     2.9604     1.4742 C.ar    
   5 N5             6.2915     3.2613     0.3214 N.ar    
   6 C6             5.6673     3.9892    -0.5807 C.ar    
   7 N7             4.4451     4.4531    -0.3949 N.ar    
   8 C8             3.7772     4.2036     0.7268 C.ar    
   9 C9             4.4017     3.4303     1.7198 C.ar    
  10 N10            2.4967     4.6946     0.9125 N.pl3   
  11 C11            1.8619     5.4996    -0.1340 C.3     
  12 C12            1.2603     4.5751    -1.1943 C.3     
  13 N13            0.3611     9.3596     2.4730 N.ar    
  14 C14           -0.5871    10.0949     3.0027 C.ar    
  15 C15           -1.9336     9.7699     2.8564 C.ar    
  16 C16           -2.2932     8.6603     2.1457 C.ar    
  17 C17           -1.2716     7.8744     1.5787 C.ar    
  18 C18           -1.5672     6.7199     0.8359 C.ar    
  19 C19           -0.5583     5.9774     0.2997 C.ar    
  20 C20            0.7713     6.3437     0.4736 C.ar    
  21 C21            1.1051     7.4738     1.1984 C.ar    
  22 C22            0.0767     8.2633     1.7672 C.ar    
  23 C23            3.2889     8.2778     0.2905 C.ar    
  24 C24            2.5257     7.8541     1.3782 C.ar    
  25 C25            3.1226     7.7944     2.6410 C.ar    
  26 C26            4.4546     8.1614     2.7559 C.ar    
  27 C27            5.1435     8.5713     1.6262 C.ar    
  28 N28            4.5515     8.6171     0.4483 N.ar    
  29 F29            5.0735     8.1202     3.9561 F       
  30 H30            4.9983     1.8219     4.4323 H       
  31 H31            6.9095     1.7930     2.7311 H       
  32 H32            6.1740     4.2157    -1.5071 H       
  33 H33            2.0195     4.5057     1.7356 H       
  34 H34            2.6070     6.1468    -0.5968 H       
  35 H35            2.0605     4.0414    -1.7072 H       
  36 H36            0.5942     3.8577    -0.7150 H       
  37 H37            0.6978     5.1674    -1.9159 H       
  38 H38           -0.3167    10.9750     3.5672 H       
  39 H39           -2.6922    10.3942     3.3047 H       
  40 H40           -3.3323     8.3929     2.0224 H       
  41 H41           -2.5945     6.4198     0.6907 H       
  42 H42           -0.7954     5.0911    -0.2701 H       
  43 H43            2.8413     8.3242    -0.6912 H       
  44 H44            2.5606     7.4712     3.5047 H       
  45 H45            6.1813     8.8580     1.7112 H       
  46 C46           13.0810    17.9633    10.5791 C.2     
  47 C47           13.1014    16.4564    10.5708 C.3     
  48 O48           14.1190    18.5816    10.5725 O.2     
  49 O49           11.9095    18.6185    10.5883 O.3     
  50 F50           14.4265    16.0081    10.5558 F       
  51 F51           12.4592    15.9750    11.7167 F       
  52 F52           12.4374    15.9873     9.4323 F       
  53 H53           11.9470    19.5848    10.5933 H       
  54 C54           20.5980    26.5730    17.8636 C.2     
  55 C55           20.6184    25.0662    17.8553 C.3     
  56 O56           21.6360    27.1913    17.8570 O.2     
  57 O57           19.4265    27.2283    17.8727 O.3     
  58 F58           21.9435    24.6179    17.8402 F       
  59 F59           19.9762    24.5848    19.0012 F       
  60 F60           19.9544    24.5971    16.7167 F       
  61 H61           19.4640    28.1946    17.8777 H       
  62 C62           28.1150    35.1828    25.1480 C.2     
  63 C63           28.1354    33.6759    25.1397 C.3     
  64 O64           29.1530    35.8011    25.1414 O.2     
  65 O65           26.9435    35.8381    25.1571 O.3     
  66 F66           29.4605    33.2276    25.1246 F       
  67 F67           27.4932    33.1946    26.2856 F       
  68 F68           27.4714    33.2068    24.0012 F       
  69 H69           26.9810    36.8043    25.1622 H       
@<TRIPOS>BOND
   1    1    2 2
   2    1    9 1
   3    2    3 1
   4    2   30 1
   5    3    4 1
   6    3   31 1
   7    4    5 ar
   8    4    9 ar
   9    5    6 ar
  10    6    7 ar
  11    6   32 1
  12    7    8 ar
  13    8    9 ar
  14    8   10 1
  15   10   11 1
  16   10   33 1
  17   11   12 1
  18   11   20 1
  19   11   34 1
  20   12   35 1
  21   12   36 1
  22   12   37 1
  23   13   14 ar
  24   13   22 ar
  25   14   15 ar
  26   14   38 1
  27   15   16 ar
  28   15   39 1
  29   16   17 ar
  30   16   40 1
  31   17   18 ar
  32   17   22 ar
  33   18   19 ar
  34   18   41 1
  35   19   20 ar
  36   19   42 1
  37   20   21 ar
  38   21   22 ar
  39   21   24 1
  40   23   24 ar
  41   23   28 ar
  42   23   43 1
  43   24   25 ar
  44   25   26 ar
  45   25   44 1
  46   26   27 ar
  47   26   29 1
  48   27   28 ar
  49   27   45 1
  50   46   47 1
  51   46   48 2
  52   46   49 1
  53   47   50 1
  54   47   51 1
  55   47   52 1
  56   49   53 1
  57   54   55 1
  58   54   56 2
  59   54   57 1
  60   55   58 1
  61   55   59 1
  62   55   60 1
  63   57   61 1
  64   62   63 1
  65   62   64 2
  66   62   65 1
  67   63   66 1
  68   63   67 1
  69   63   68 1
  70   65   69 1

#	End of record

