#	Name: ASD04910080
#	Creating user name:	WinNT
#	Creation time:	15. 06. 2019 20:55

#	Modifying user name:	WinNT
#	Modification time:	15. 06. 2019 20:55

#	Program:	/corina/corina34_cracker 3.40 0067  02.08.2006

@<TRIPOS>MOLECULE
ASD04910080
  28   30    0    0    0
SMALL
NO_CHARGES


@<TRIPOS>ATOM
   1 C1            -0.0168     1.3853     0.0097 C.ar    
   2 C2             0.0021    -0.0041     0.0020 C.ar    
   3 C3             1.2202    -0.6609    -0.0131 C.ar    
   4 C4             2.3822     0.0991    -0.0201 C.ar    
   5 C5             2.2882     1.4777    -0.0118 C.ar    
   6 N6             1.1123     2.0750     0.0026 N.ar    
   7 N7            -1.2406     2.0610     0.0191 N.pl3   
   8 N8            -2.5077     1.4652     0.0223 N.2     
   9 C9            -3.4109     2.4094     0.0323 C.2     
  10 C10           -2.7465     3.6525     0.0359 C.2     
  11 C11           -1.4056     3.4026     0.0326 C.2     
  12 C12           -3.3894     4.9906     0.0467 C.ar    
  13 C13           -4.7782     5.0989     0.0550 C.ar    
  14 C14           -5.3708     6.3454     0.0650 C.ar    
  15 C15           -4.5882     7.4859     0.0669 C.ar    
  16 C16           -3.2088     7.3841     0.0586 C.ar    
  17 C17           -2.6059     6.1425     0.0544 C.ar    
  18 I18            4.2578    -0.8341    -0.0423 I       
  19 H19           -0.9215    -0.5639     0.0082 H       
  20 H20            1.2659    -1.7399    -0.0190 H       
  21 H21            3.1889     2.0736    -0.0168 H       
  22 H22           -4.4808     2.2628     0.0370 H       
  23 H23           -0.6186     4.1423     0.0375 H       
  24 H24           -5.3902     4.2090     0.0533 H       
  25 H25           -6.4474     6.4305     0.0711 H       
  26 H26           -5.0558     8.4594     0.0743 H       
  27 H27           -2.6023     8.2778     0.0597 H       
  28 H28           -1.5287     6.0641     0.0525 H       
@<TRIPOS>BOND
   1    1    2 ar
   2    1    6 ar
   3    1    7 1
   4    2    3 ar
   5    2   19 1
   6    3    4 ar
   7    3   20 1
   8    4    5 ar
   9    4   18 1
  10    5    6 ar
  11    5   21 1
  12    7    8 1
  13    7   11 1
  14    8    9 2
  15    9   10 1
  16    9   22 1
  17   10   11 2
  18   10   12 1
  19   11   23 1
  20   12   13 ar
  21   12   17 ar
  22   13   14 ar
  23   13   24 1
  24   14   15 ar
  25   14   25 1
  26   15   16 ar
  27   15   26 1
  28   16   17 ar
  29   16   27 1
  30   17   28 1

#	End of record

