#	Name: ASD01209211
#	Creating user name:	WinNT
#	Creation time:	15. 06. 2019 19:11

#	Modifying user name:	WinNT
#	Modification time:	15. 06. 2019 19:11

#	Program:	/corina/corina34_cracker 3.40 0067  02.08.2006

@<TRIPOS>MOLECULE
ASD01209211
  61   63    0    0    0
SMALL
NO_CHARGES


@<TRIPOS>ATOM
   1 O1            -0.1304     0.2426    -0.6801 O.3     
   2 O2             2.1600     0.4400     0.5956 O.3     
   3 C3             1.9060     5.6615    -7.5900 C.2     
   4 C4             0.5713     5.5676    -7.2478 C.2     
   5 C5             0.0233     4.9756    -6.0187 C.2     
   6 N6             0.8539     4.5655    -5.0398 N.am    
   7 O7            -1.1800     4.8560    -5.8853 O.2     
   8 C8             0.3352     4.1045    -3.8368 C.2     
   9 P9             1.3067     0.9683    -0.6633 P.3     
  10 O10            2.0311     0.6573    -1.9158 O.2     
  11 C11            1.0753     2.7714    -0.5268 C.3     
  12 N12            1.0433     3.6882    -2.8337 N.2     
  13 S13           -1.3298     4.0101    -3.4604 S.3     
  14 C14           -0.9438     3.3647    -1.8672 C.2     
  15 C15            0.3841     3.2842    -1.7639 C.2     
  16 N16           -0.1449     6.1309    -8.2703 N.pl3   
  17 N17            0.7681     6.5684    -9.2380 N.2     
  18 C18            1.9816     6.2884    -8.8311 C.2     
  19 C19            3.2513     6.5954    -9.5826 C.3     
  20 C20            3.8072     5.3069   -10.1922 C.3     
  21 C21           -1.5386     6.2475    -8.3366 C.ar    
  22 C22           -2.2550     6.6722    -7.2253 C.ar    
  23 C23           -2.2070     5.9442    -9.5157 C.ar    
  24 C24           -3.5818     6.0603    -9.5778 C.ar    
  25 C25           -4.2928     6.4780    -8.4677 C.ar    
  26 C26           -3.6297     6.7862    -7.2939 C.ar    
  27 C27           -0.2902    -1.1629    -0.8828 C.3     
  28 C28           -1.7777    -1.5185    -0.8403 C.3     
  29 C29            2.5979    -0.9140     0.7259 C.3     
  30 C30            3.3787    -1.0741     2.0319 C.3     
  31 C31            2.9538     7.6001   -10.6974 C.3     
  32 C32            4.2818     7.1907    -8.6211 C.3     
  33 H33            2.7412     5.3152    -6.9992 H       
  34 H34            1.8140     4.5923    -5.1755 H       
  35 H35            0.4655     2.9943     0.3488 H       
  36 H36            2.0465     3.2558    -0.4260 H       
  37 H37           -1.6573     3.0862    -1.1058 H       
  38 H38            3.0731     4.8828   -10.8772 H       
  39 H39            4.7256     5.5290   -10.7358 H       
  40 H40            4.0192     4.5911    -9.3980 H       
  41 H41           -1.7378     6.9128    -6.3082 H       
  42 H42           -1.6523     5.6183   -10.3831 H       
  43 H43           -4.1021     5.8249   -10.4944 H       
  44 H44           -5.3678     6.5683    -8.5189 H       
  45 H45           -4.1878     7.1118    -6.4285 H       
  46 H46            0.1219    -1.4392    -1.8533 H       
  47 H47            0.2357    -1.7054    -0.0971 H       
  48 H48           -1.8995    -2.5906    -0.9948 H       
  49 H49           -2.1897    -1.2422     0.1303 H       
  50 H50           -2.3035    -0.9760    -1.6260 H       
  51 H51            1.7323    -1.5764     0.7366 H       
  52 H52            3.2412    -1.1704    -0.1158 H       
  53 H53            4.2443    -0.4117     2.0212 H       
  54 H54            2.7354    -0.8177     2.8736 H       
  55 H55            3.7127    -2.1068     2.1313 H       
  56 H56            2.5577     8.5181   -10.2631 H       
  57 H57            3.8721     7.8222   -11.2410 H       
  58 H58            2.2196     7.1760   -11.3824 H       
  59 H59            4.4937     6.4749    -7.8269 H       
  60 H60            5.2001     7.4127    -9.1647 H       
  61 H61            3.8857     8.1086    -8.1867 H       
@<TRIPOS>BOND
   1    1   27 1
   2    1    9 1
   3    2   29 1
   4    2    9 1
   5    3    4 2
   6    3   18 1
   7    3   33 1
   8    4    5 1
   9    4   16 1
  10    5    6 am
  11    5    7 2
  12    6    8 1
  13    6   34 1
  14    8   12 2
  15    8   13 1
  16    9   10 2
  17    9   11 1
  18   11   15 1
  19   11   35 1
  20   11   36 1
  21   12   15 1
  22   13   14 1
  23   14   15 2
  24   14   37 1
  25   16   17 1
  26   16   21 1
  27   17   18 2
  28   18   19 1
  29   19   20 1
  30   19   31 1
  31   19   32 1
  32   20   38 1
  33   20   39 1
  34   20   40 1
  35   21   22 ar
  36   21   23 ar
  37   22   26 ar
  38   22   41 1
  39   23   24 ar
  40   23   42 1
  41   24   25 ar
  42   24   43 1
  43   25   26 ar
  44   25   44 1
  45   26   45 1
  46   27   28 1
  47   27   46 1
  48   27   47 1
  49   28   48 1
  50   28   49 1
  51   28   50 1
  52   29   30 1
  53   29   51 1
  54   29   52 1
  55   30   53 1
  56   30   54 1
  57   30   55 1
  58   31   56 1
  59   31   57 1
  60   31   58 1
  61   32   59 1
  62   32   60 1
  63   32   61 1

#	End of record

