#	Name: ASD01200355
#	Creating user name:	WinNT
#	Creation time:	15. 06. 2019 19:09

#	Modifying user name:	WinNT
#	Modification time:	15. 06. 2019 19:09

#	Program:	/corina/corina34_cracker 3.40 0067  02.08.2006

@<TRIPOS>MOLECULE
ASD01200355
  39   41    0    0    0
SMALL
NO_CHARGES


@<TRIPOS>ATOM
   1 C1            -0.3496     1.3912    -0.3484 C.ar    
   2 C2            -0.2371     0.0158    -0.2511 C.ar    
   3 C3             1.0104    -0.5799    -0.1876 C.ar    
   4 C4             2.1507     0.1954    -0.2210 C.ar    
   5 C5             2.0443     1.5840    -0.3192 C.ar    
   6 C6             0.7830     2.1784    -0.3828 C.ar    
   7 C7             3.2619     2.4211    -0.3550 C.2     
   8 O8             4.3591     1.9007    -0.2990 O.2     
   9 N9             3.1558     3.7613    -0.4498 N.am    
  10 C10            4.3001     4.5479    -0.4835 C.2     
  11 S11            1.1423    -2.3325    -0.0632 S.o2    
  12 N12            1.2068    -2.9300    -1.6063 N.am    
  13 O13            2.4088    -2.5989     0.5235 O.2     
  14 O14           -0.0833    -2.7887     0.4928 O.2     
  15 S15            4.3129     6.2534    -0.6014 S.3     
  16 C16            6.0743     6.2530    -0.5694 C.2     
  17 C17            6.4861     4.9873    -0.4742 C.2     
  18 N18            5.5138     4.0961    -0.4245 N.2     
  19 C19            2.2434    -2.5473    -2.4606 C.ar    
  20 C20            1.9986    -2.3700    -3.8162 C.ar    
  21 C21            3.0260    -1.9915    -4.6583 C.ar    
  22 C22            4.2971    -1.7892    -4.1530 C.ar    
  23 C23            4.5443    -1.9649    -2.8036 C.ar    
  24 C24            3.5205    -2.3376    -1.9553 C.ar    
  25 N25            0.6385    -2.5868    -4.3580 N.pl3   
  26 O26            0.4245    -2.4311    -5.5469 O.2     
  27 O27           -0.2669    -2.9209    -3.6149 O.2     
  28 H28           -1.3261     1.8495    -0.4021 H       
  29 H29           -1.1268    -0.5958    -0.2242 H       
  30 H30            3.1237    -0.2707    -0.1711 H       
  31 H31            0.6938     3.2520    -0.4592 H       
  32 H32            2.2803     4.1765    -0.4945 H       
  33 H33            0.5247    -3.5458    -1.9169 H       
  34 H34            6.7098     7.1248    -0.6188 H       
  35 H35            7.5304     4.7145    -0.4369 H       
  36 H36            2.8364    -1.8538    -5.7125 H       
  37 H37            5.0987    -1.4937    -4.8137 H       
  38 H38            5.5384    -1.8064    -2.4123 H       
  39 H39            3.7143    -2.4747    -0.9017 H       
@<TRIPOS>BOND
   1    1    2 ar
   2    1    6 ar
   3    1   28 1
   4    2    3 ar
   5    2   29 1
   6    3    4 ar
   7    3   11 1
   8    4    5 ar
   9    4   30 1
  10    5    6 ar
  11    5    7 1
  12    6   31 1
  13    7    8 2
  14    7    9 am
  15    9   10 1
  16    9   32 1
  17   10   15 1
  18   10   18 2
  19   11   12 am
  20   11   13 2
  21   11   14 2
  22   12   19 1
  23   12   33 1
  24   15   16 1
  25   16   17 2
  26   16   34 1
  27   17   18 1
  28   17   35 1
  29   19   20 ar
  30   19   24 ar
  31   20   25 1
  32   20   21 ar
  33   21   22 ar
  34   21   36 1
  35   22   23 ar
  36   22   37 1
  37   23   24 ar
  38   23   38 1
  39   24   39 1
  40   25   26 2
  41   25   27 2

#	End of record

