#	Name: ASD04570012
#	Creating user name:	WinNT
#	Creation time:	15. 06. 2019 20:49

#	Modifying user name:	WinNT
#	Modification time:	15. 06. 2019 20:49

#	Program:	/corina/corina34_cracker 3.40 0067  02.08.2006

@<TRIPOS>MOLECULE
ASD04570012
 274  280    0    0    0
SMALL
NO_CHARGES


@<TRIPOS>ATOM
   1 C1             6.0267     5.1718    -7.8812 C.3     
   2 C2             7.3615     5.1618    -7.1335 C.3     
   3 C3             7.6282     6.5311    -6.5635 C.2     
   4 N4             7.3042     4.1798    -6.0424 N.3     
   5 O5             7.4982     6.7286    -5.3740 O.2     
   6 C6             6.1449     6.0564    -9.1240 C.3     
   7 C7             7.0905     5.3981   -10.1306 C.3     
   8 C8             4.7640     6.2301    -9.7596 C.3     
   9 C9             5.7519     2.0117    -4.7938 C.3     
  10 C10            6.0395     3.3731    -4.1576 C.3     
  11 C11            7.3420     3.3094    -3.4022 C.2     
  12 N12            6.1325     4.3950    -5.2087 N.3     
  13 O13            8.2575     4.0431    -3.7092 O.2     
  14 O14            6.8845     1.5947    -5.5589 O.3     
  15 C15            8.7577     3.4356    -0.5480 C.3     
  16 C16            8.7555     2.3753    -1.6510 C.3     
  17 C17            8.9125     1.0091    -1.0347 C.2     
  18 N18            7.4893     2.4372    -2.3854 N.am    
  19 O19            8.0515     0.1697    -1.1933 O.2     
  20 C20            8.7243     4.8078    -1.1703 C.ar    
  21 C21            7.5113     5.4166    -1.4341 C.ar    
  22 C22            7.4780     6.6744    -2.0044 C.ar    
  23 C23            8.6631     7.3266    -2.3125 C.ar    
  24 C24            9.8789     6.7136    -2.0468 C.ar    
  25 C25            9.9068     5.4580    -1.4712 C.ar    
  26 O26            8.6330     8.5638    -2.8740 O.3     
  27 C27           10.7711    -1.5643    -0.7358 C.3     
  28 C28           10.1623    -0.6082     0.2918 C.3     
  29 C29           11.0692    -0.5167     1.4919 C.2     
  30 N30           10.0097     0.7200    -0.3073 N.am    
  31 O31           11.5415     0.5526     1.8149 O.2     
  32 N32            9.4667    -2.8922    -4.0375 N.pl3   
  33 C33            9.7990    -3.7144    -5.0881 C.2     
  34 N34            8.9664    -3.8762    -6.0777 N.2     
  35 N35           11.0096    -4.3661    -5.0947 N.pl3   
  36 C36            9.7937    -1.7542    -1.8976 C.3     
  37 C37           10.4026    -2.7104    -2.9252 C.3     
  38 C38           11.4185    -1.1311     4.6010 C.3     
  39 C39           12.2370    -1.5343     3.3728 C.3     
  40 C40           12.8833    -2.8735     3.6174 C.2     
  41 N41           11.3554    -1.6232     2.2062 N.am    
  42 O42           12.4398    -3.8675     3.0824 O.2     
  43 S43           10.7490     0.5376     4.3603 S.3     
  44 C44           14.6568    -1.8362     5.0548 C.3     
  45 C45           15.7941    -2.4234     5.9169 C.3     
  46 C46           14.6140    -4.2190     4.8421 C.3     
  47 C47           13.5919    -5.3066     5.0504 C.2     
  48 N48           13.9540    -2.9666     4.4305 N.am    
  49 O49           12.4156    -5.0246     5.1379 O.2     
  50 C50           15.3166    -3.8761     6.1795 C.3     
  51 C51           12.4141    -8.0732     3.9896 C.3     
  52 C52           12.9913    -7.6500     5.3419 C.3     
  53 C53           13.6470    -8.8359     6.0015 C.2     
  54 N54           13.9850    -6.5927     5.1394 N.am    
  55 O55           14.8279    -8.8012     6.2754 O.2     
  56 S56           11.6249    -6.6458     3.1957 S.3     
  57 C57           13.5742   -10.8836     8.4443 C.3     
  58 C58           13.5583   -11.0877     6.9281 C.3     
  59 C59           12.7843   -12.3378     6.5976 C.2     
  60 N60           12.9209    -9.9349     6.2869 N.am    
  61 O61           11.7975   -12.2722     5.8956 O.2     
  62 N62           15.3296    -8.3363    10.6343 N.pl3   
  63 C63           15.4975    -7.9594    11.9457 C.2     
  64 N64           14.8998    -8.6219    12.8959 N.2     
  65 N65           16.2959    -6.8838    12.2550 N.pl3   
  66 C66           14.4628    -9.6866     8.7885 C.3     
  67 C67           14.4788    -9.4825    10.3047 C.3     
  68 C68           12.9099   -15.2961     5.4149 C.3     
  69 C69           12.4363   -14.7439     6.7609 C.3     
  70 C70           12.6652   -15.7753     7.8355 C.2     
  71 N71           13.1887   -13.5286     7.0821 N.am    
  72 O72           13.3858   -15.5203     8.7771 O.2     
  73 C73           12.5696   -14.3159     4.3220 C.ar    
  74 C74           13.4725   -13.3290     3.9729 C.ar    
  75 C75           13.1603   -12.4299     2.9704 C.ar    
  76 C76           11.9455   -12.5178     2.3167 C.ar    
  77 C77           11.0430   -13.5053     2.6652 C.ar    
  78 C78           11.3569   -14.4071     3.6647 C.ar    
  79 C79           11.3138   -17.7450     9.9474 C.3     
  80 C80           12.2915   -17.9837     8.7950 C.3     
  81 C81           12.0695   -19.3609     8.2250 C.2     
  82 N82           12.0690   -16.9810     7.7503 N.am    
  83 O83           11.7563   -19.4920     7.0607 O.2     
  84 C84           11.6164   -16.4190    10.5965 C.ar    
  85 C85           10.9989   -15.2694    10.1405 C.ar    
  86 C86           11.2765   -14.0531    10.7358 C.ar    
  87 C87           12.1712   -13.9865    11.7875 C.ar    
  88 C88           12.7879   -15.1363    12.2441 C.ar    
  89 C89           12.5071   -16.3532    11.6516 C.ar    
  90 C90           13.2893   -22.2737     7.7848 C.3     
  91 C91           12.0033   -21.7858     8.4548 C.3     
  92 C92           11.6238   -22.7332     9.5636 C.2     
  93 N93           12.2191   -20.4469     9.0090 N.am    
  94 O94           11.5417   -22.3298    10.7044 O.2     
  95 C95           13.6067   -21.3839     6.5813 C.3     
  96 C96           14.8734   -21.8645     5.9214 C.2     
  97 O97           15.4619   -22.8207     6.3678 O.2     
  98 O98           15.3479   -21.2304     4.8376 O.3     
  99 C99            9.4995   -24.8662    10.6142 C.3     
 100 C100          11.0068   -24.9499    10.3654 C.3     
 101 C101          11.3735   -26.3574     9.9709 C.2     
 102 N102          11.3757   -24.0288     9.2875 N.am    
 103 O103          11.8919   -26.5702     8.8953 O.2     
 104 O104           8.7995   -25.3352     9.4600 O.3     
 105 C105          11.6950   -29.5912    11.6887 C.3     
 106 C106          11.4818   -28.7479    10.4300 C.3     
 107 C107          10.3691   -29.3452     9.6077 C.2     
 108 N108          11.1254   -27.3797    10.8134 N.am    
 109 O109           9.3804   -28.6951     9.3668 O.2     
 110 C110          12.8861   -29.0670    12.4487 C.2     
 111 N111          12.8633   -28.1775    13.4888 N.pl3   
 112 C112          14.1424   -27.9818    13.8752 C.2     
 113 N113          14.9228   -28.7066    13.1211 N.2     
 114 C114          14.1770   -29.3882    12.2389 C.2     
 115 C115           9.8543     8.8073    -6.3912 C.3     
 116 C116           8.3826     8.8350    -6.8087 C.3     
 117 C117           8.1737     9.9122    -7.8416 C.2     
 118 N118           8.0113     7.5361    -7.3756 N.am    
 119 O119           7.7557     9.6235    -8.9429 O.2     
 120 C120           6.7895    12.7048    -8.5137 C.3     
 121 C121           8.2481    12.2437    -8.5456 C.3     
 122 C122           9.1509    13.4118    -8.2430 C.2     
 123 N123           8.4512    11.1965    -7.5415 N.am    
 124 O124           9.8912    13.3733    -7.2831 O.2     
 125 O125           6.5141    13.3273    -7.2573 O.3     
 126 C126          11.3926    15.3857    -9.3588 C.3     
 127 C127          10.0134    15.6347    -8.7449 C.3     
 128 C128           9.4224    16.8913    -9.3304 C.2     
 129 N129           9.1357    14.4992    -9.0391 N.am    
 130 O130           8.3716    16.8431    -9.9340 O.2     
 131 C131           9.9962    20.5044    -8.9730 C.3     
 132 C132           9.4872    19.2902    -9.7525 C.3     
 133 C133           9.8978    19.4125   -11.1973 C.2     
 134 N134          10.0617    18.0686    -9.1833 N.am    
 135 O135          10.5980    18.5667   -11.6997 O.2     
 136 C136           9.4824    20.4441    -7.5576 C.2     
 137 C137           8.3814    21.0466    -7.0814 C.2     
 138 N138           8.2340    20.7648    -5.7506 N.pl3   
 139 C139           9.2628    19.9534    -5.3273 C.ar    
 140 C140          10.0863    19.7118    -6.4418 C.ar    
 141 C141           9.5906    19.3832    -4.1013 C.ar    
 142 C142          10.7163    18.5971    -3.9916 C.ar    
 143 C143          11.5293    18.3668    -5.0931 C.ar    
 144 C144          11.2184    18.9053    -6.3098 C.ar    
 145 H145           5.7708     4.1557    -8.1816 H       
 146 H146           5.2474     5.5648    -7.2283 H       
 147 H147           8.1620     4.8928    -7.8227 H       
 148 H148           7.3235     3.2375    -6.4027 H       
 149 H149           6.5392     7.0319    -8.8394 H       
 150 H150           7.2307     6.0608   -10.9845 H       
 151 H151           8.0530     5.2093    -9.6552 H       
 152 H152           6.6614     4.4550   -10.4692 H       
 153 H153           4.0903     6.6991    -9.0424 H       
 154 H154           4.8482     6.8603   -10.6449 H       
 155 H155           4.3697     5.2546   -10.0442 H       
 156 H156           5.5526     1.2797    -4.0112 H       
 157 H157           4.8824     2.0919    -5.4462 H       
 158 H158           5.2333     3.6307    -3.4707 H       
 159 H159           6.1366     5.3227    -4.8119 H       
 160 H160           6.7726     0.7373    -5.9919 H       
 161 H161           7.8808     3.3026     0.0856 H       
 162 H162           9.6602     3.3316     0.0542 H       
 163 H163           9.5824     2.5620    -2.3362 H       
 164 H164           6.7570     1.8503    -2.1398 H       
 165 H165           6.5890     4.9084    -1.1944 H       
 166 H166           6.5303     7.1495    -2.2106 H       
 167 H167          10.8028     7.2192    -2.2857 H       
 168 H168          10.8531     4.9822    -1.2601 H       
 169 H169           8.6324     9.2871    -2.2322 H       
 170 H170          11.7054    -1.1470    -1.1116 H       
 171 H171          10.9670    -2.5275    -0.2646 H       
 172 H172           9.1862    -0.9814     0.6016 H       
 173 H173          10.6982     1.3913    -0.1805 H       
 174 H174           8.6126    -2.4324    -4.0328 H       
 175 H175           9.2009    -4.4564    -6.8189 H       
 176 H176          11.6293    -4.2457    -4.3582 H       
 177 H177          11.2441    -4.9462    -5.8359 H       
 178 H178           8.8595    -2.1715    -1.5218 H       
 179 H179           9.5979    -0.7910    -2.3688 H       
 180 H180          10.5984    -3.6735    -2.4540 H       
 181 H181          11.3368    -2.2931    -3.3009 H       
 182 H182          10.5981    -1.8355     4.7381 H       
 183 H183          12.0582    -1.1421     5.4835 H       
 184 H184          13.0086    -0.7867     3.1890 H       
 185 H185          10.9776    -2.4784     1.9478 H       
 186 H186          10.0647     0.7560     5.4975 H       
 187 H187          13.9675    -1.2730     5.6840 H       
 188 H188          15.0730    -1.1873     4.2842 H       
 189 H189          16.7355    -2.4202     5.3675 H       
 190 H190          15.8911    -1.8741     6.8534 H       
 191 H191          15.3460    -4.5254     4.0948 H       
 192 H192          16.1629    -4.5394     6.3575 H       
 193 H193          14.6126    -3.9117     7.0109 H       
 194 H194          13.2163    -8.4457     3.3526 H       
 195 H195          11.6748    -8.8598     4.1403 H       
 196 H196          12.1891    -7.2775     5.9789 H       
 197 H197          14.9258    -6.8183     5.0694 H       
 198 H198          11.1704    -7.1567     2.0375 H       
 199 H199          12.5598   -10.6963     8.7964 H       
 200 H200          13.9670   -11.7784     8.9272 H       
 201 H201          14.5809   -11.1866     6.5640 H       
 202 H202          11.9764    -9.9626     6.0678 H       
 203 H203          15.7744    -7.8433     9.9272 H       
 204 H204          15.0183    -8.3560    13.8211 H       
 205 H205          16.7408    -6.3908    11.5479 H       
 206 H206          16.4144    -6.6179    13.1803 H       
 207 H207          15.4772    -9.8739     8.4364 H       
 208 H208          14.0700    -8.7918     8.3056 H       
 209 H209          14.8715   -10.3773    10.7876 H       
 210 H210          13.4644    -9.2952    10.6568 H       
 211 H211          13.9889   -15.4479     5.4438 H       
 212 H212          12.4145   -16.2467     5.2175 H       
 213 H213          11.3735   -14.5087     6.7034 H       
 214 H214          13.9779   -13.5811     7.6436 H       
 215 H215          14.4216   -13.2603     4.4836 H       
 216 H216          13.8654   -11.6584     2.6982 H       
 217 H217          11.7013   -11.8149     1.5340 H       
 218 H218          10.0937   -13.5738     2.1547 H       
 219 H219          10.6534   -15.1809     3.9344 H       
 220 H220          10.2939   -17.7370     9.5629 H       
 221 H221          11.4183   -18.5421    10.6835 H       
 222 H222          13.3141   -17.9035     9.1637 H       
 223 H223          11.4926   -17.1849     6.9972 H       
 224 H224          10.2999   -15.3214     9.3188 H       
 225 H225          10.7946   -13.1548    10.3791 H       
 226 H226          12.3886   -13.0361    12.2521 H       
 227 H227          13.4872   -15.0842    13.0655 H       
 228 H228          12.9861   -17.2521    12.0108 H       
 229 H229          14.1116   -22.2262     8.4987 H       
 230 H230          13.1571   -23.3029     7.4509 H       
 231 H231          11.2010   -21.7490     7.7179 H       
 232 H232          12.4696   -20.3420     9.9402 H       
 233 H233          12.7844   -21.4314     5.8674 H       
 234 H234          13.7389   -20.3547     6.9153 H       
 235 H235          16.1634   -21.5753     4.4491 H       
 236 H236           9.2383   -25.4839    11.4734 H       
 237 H237           9.2209   -23.8313    10.8124 H       
 238 H238          11.5410   -24.6767    11.2754 H       
 239 H239          11.4414   -24.3515     8.3751 H       
 240 H240           7.8367   -25.3106     9.5470 H       
 241 H241          10.8077   -29.5337    12.3191 H       
 242 H242          11.8727   -30.6286    11.4052 H       
 243 H243          12.4000   -28.7331     9.8427 H       
 244 H244          10.4559   -30.3547     9.2338 H       
 245 H245          10.7107   -27.2095    11.6737 H       
 246 H246          12.0755   -27.7648    13.8761 H       
 247 H247          14.4659   -27.3327    14.6755 H       
 248 H248          14.5471   -30.0725    11.4898 H       
 249 H249          10.4754     8.6003    -7.2628 H       
 250 H250          10.1306     9.7736    -5.9694 H       
 251 H251          10.0055     8.0281    -5.6441 H       
 252 H252           7.7616     9.0419    -5.9371 H       
 253 H253           8.0412     7.3996    -8.3355 H       
 254 H254           6.6166    13.4191    -9.3187 H       
 255 H255           6.1335    11.8442    -8.6444 H       
 256 H256           8.4830    11.8495    -9.5344 H       
 257 H257           8.7855    11.4274    -6.6607 H       
 258 H258           5.6053    13.6450    -7.1665 H       
 259 H259          12.0456    16.2305    -9.1399 H       
 260 H260          11.8200    14.4768    -8.9353 H       
 261 H261          11.2947    15.2723   -10.4384 H       
 262 H262          10.1113    15.7480    -7.6653 H       
 263 H263           8.5437    14.5300    -9.8068 H       
 264 H264          11.0861    20.4998    -8.9644 H       
 265 H265           9.6405    21.4176    -9.4501 H       
 266 H266           8.4001    19.2455    -9.6862 H       
 267 H267           9.5658    20.2567   -11.7834 H       
 268 H268          10.9021    18.1072    -8.7006 H       
 269 H269           7.7115    21.6630    -7.6625 H       
 270 H270           7.5125    21.0886    -5.1890 H       
 271 H271           8.9647    19.5567    -3.2384 H       
 272 H272          10.9693    18.1556    -3.0389 H       
 273 H273          12.4086    17.7482    -4.9900 H       
 274 H274          11.8544    18.7201    -7.1628 H       
@<TRIPOS>BOND
   1    1    6 1
   2    1    2 1
   3    1  145 1
   4    1  146 1
   5    2    4 1
   6    2    3 1
   7    2  147 1
   8    3    5 2
   9    3  118 am
  10    4   12 1
  11    4  148 1
  12    6    7 1
  13    6    8 1
  14    6  149 1
  15    7  150 1
  16    7  151 1
  17    7  152 1
  18    8  153 1
  19    8  154 1
  20    8  155 1
  21    9   14 1
  22    9   10 1
  23    9  156 1
  24    9  157 1
  25   10   12 1
  26   10   11 1
  27   10  158 1
  28   11   13 2
  29   11   18 am
  30   12  159 1
  31   14  160 1
  32   15   20 1
  33   15   16 1
  34   15  161 1
  35   15  162 1
  36   16   17 1
  37   16   18 1
  38   16  163 1
  39   17   19 2
  40   17   30 am
  41   18  164 1
  42   20   21 ar
  43   20   25 ar
  44   21   22 ar
  45   21  165 1
  46   22   23 ar
  47   22  166 1
  48   23   24 ar
  49   23   26 1
  50   24   25 ar
  51   24  167 1
  52   25  168 1
  53   26  169 1
  54   27   36 1
  55   27   28 1
  56   27  170 1
  57   27  171 1
  58   28   30 1
  59   28   29 1
  60   28  172 1
  61   29   31 2
  62   29   41 am
  63   30  173 1
  64   32   37 1
  65   32   33 1
  66   32  174 1
  67   33   34 2
  68   33   35 1
  69   34  175 1
  70   35  176 1
  71   35  177 1
  72   36   37 1
  73   36  178 1
  74   36  179 1
  75   37  180 1
  76   37  181 1
  77   38   43 1
  78   38   39 1
  79   38  182 1
  80   38  183 1
  81   39   40 1
  82   39   41 1
  83   39  184 1
  84   40   42 2
  85   40   48 am
  86   41  185 1
  87   43  186 1
  88   44   48 1
  89   44   45 1
  90   44  187 1
  91   44  188 1
  92   45   50 1
  93   45  189 1
  94   45  190 1
  95   46   48 1
  96   46   47 1
  97   46   50 1
  98   46  191 1
  99   47   49 2
 100   47   54 am
 101   50  192 1
 102   50  193 1
 103   51   56 1
 104   51   52 1
 105   51  194 1
 106   51  195 1
 107   52   53 1
 108   52   54 1
 109   52  196 1
 110   53   55 2
 111   53   60 am
 112   54  197 1
 113   56  198 1
 114   57   66 1
 115   57   58 1
 116   57  199 1
 117   57  200 1
 118   58   60 1
 119   58   59 1
 120   58  201 1
 121   59   61 2
 122   59   71 am
 123   60  202 1
 124   62   67 1
 125   62   63 1
 126   62  203 1
 127   63   64 2
 128   63   65 1
 129   64  204 1
 130   65  205 1
 131   65  206 1
 132   66   67 1
 133   66  207 1
 134   66  208 1
 135   67  209 1
 136   67  210 1
 137   68   73 1
 138   68   69 1
 139   68  211 1
 140   68  212 1
 141   69   70 1
 142   69   71 1
 143   69  213 1
 144   70   72 2
 145   70   82 am
 146   71  214 1
 147   73   74 ar
 148   73   78 ar
 149   74   75 ar
 150   74  215 1
 151   75   76 ar
 152   75  216 1
 153   76   77 ar
 154   76  217 1
 155   77   78 ar
 156   77  218 1
 157   78  219 1
 158   79   84 1
 159   79   80 1
 160   79  220 1
 161   79  221 1
 162   80   81 1
 163   80   82 1
 164   80  222 1
 165   81   83 2
 166   81   93 am
 167   82  223 1
 168   84   85 ar
 169   84   89 ar
 170   85   86 ar
 171   85  224 1
 172   86   87 ar
 173   86  225 1
 174   87   88 ar
 175   87  226 1
 176   88   89 ar
 177   88  227 1
 178   89  228 1
 179   90   95 1
 180   90   91 1
 181   90  229 1
 182   90  230 1
 183   91   93 1
 184   91   92 1
 185   91  231 1
 186   92   94 2
 187   92  102 am
 188   93  232 1
 189   95   96 1
 190   95  233 1
 191   95  234 1
 192   96   97 2
 193   96   98 1
 194   98  235 1
 195   99  104 1
 196   99  100 1
 197   99  236 1
 198   99  237 1
 199  100  102 1
 200  100  101 1
 201  100  238 1
 202  101  103 2
 203  101  108 am
 204  102  239 1
 205  104  240 1
 206  105  110 1
 207  105  106 1
 208  105  241 1
 209  105  242 1
 210  106  107 1
 211  106  108 1
 212  106  243 1
 213  107  109 2
 214  107  244 1
 215  108  245 1
 216  110  111 1
 217  110  114 2
 218  111  112 1
 219  111  246 1
 220  112  113 2
 221  112  247 1
 222  113  114 1
 223  114  248 1
 224  115  116 1
 225  115  249 1
 226  115  250 1
 227  115  251 1
 228  116  117 1
 229  116  118 1
 230  116  252 1
 231  117  119 2
 232  117  123 am
 233  118  253 1
 234  120  125 1
 235  120  121 1
 236  120  254 1
 237  120  255 1
 238  121  123 1
 239  121  122 1
 240  121  256 1
 241  122  124 2
 242  122  129 am
 243  123  257 1
 244  125  258 1
 245  126  127 1
 246  126  259 1
 247  126  260 1
 248  126  261 1
 249  127  128 1
 250  127  129 1
 251  127  262 1
 252  128  130 2
 253  128  134 am
 254  129  263 1
 255  131  136 1
 256  131  132 1
 257  131  264 1
 258  131  265 1
 259  132  133 1
 260  132  134 1
 261  132  266 1
 262  133  135 2
 263  133  267 1
 264  134  268 1
 265  136  137 2
 266  136  140 1
 267  137  138 1
 268  137  269 1
 269  138  139 1
 270  138  270 1
 271  139  140 ar
 272  139  141 ar
 273  140  144 ar
 274  141  142 ar
 275  141  271 1
 276  142  143 ar
 277  142  272 1
 278  143  144 ar
 279  143  273 1
 280  144  274 1

#	End of record

