#	Name: ASD01202026
#	Creating user name:	WinNT
#	Creation time:	15. 06. 2019 19:09

#	Modifying user name:	WinNT
#	Modification time:	15. 06. 2019 19:09

#	Program:	/corina/corina34_cracker 3.40 0067  02.08.2006

@<TRIPOS>MOLECULE
ASD01202026
  44   47    0    0    0
SMALL
NO_CHARGES


@<TRIPOS>ATOM
   1 C1             0.6505     1.5793    -0.4957 C.2     
   2 C2             0.4779     0.2037    -0.3545 C.2     
   3 C3             1.9555     1.9711    -0.5652 C.2     
   4 C4            -0.4754     2.5251    -0.5695 C.2     
   5 C5             1.6339    -0.4835    -0.3129 C.2     
   6 S6             2.9925     0.6211    -0.4548 S.3     
   7 O7            -1.6190     2.1154    -0.5071 O.2     
   8 N8            -0.2390     3.8449    -0.7063 N.am    
   9 C9             1.7440    -1.9466    -0.1701 C.ar    
  10 C10           -1.3013     4.7373    -0.7760 C.2     
  11 S11           -2.9521     4.3028    -0.6942 S.3     
  12 N12           -1.1854     6.0181    -0.9067 N.2     
  13 C13           -3.4156     5.9914    -0.8592 C.2     
  14 C14           -2.3009     6.7362    -0.9573 C.2     
  15 H15            0.6729     4.1717    -0.7561 H       
  16 C16            2.4738    -2.5037     0.9026 C.ar    
  17 C17            2.5672    -3.8945     1.0227 C.ar    
  18 C18            1.9499    -4.7077     0.0983 C.ar    
  19 C19            1.2336    -4.1591    -0.9553 C.ar    
  20 C20            1.1231    -2.7915    -1.0905 C.ar    
  21 C21            3.1289    -1.6314     1.8829 C.2     
  22 C22            4.0235    -2.2249     2.9405 C.3     
  23 O23            2.9508    -0.4320     1.8423 O.2     
  24 C24           -2.3349     8.2492    -1.1136 C.3     
  25 C25           -3.7351     8.6649    -1.5698 C.3     
  26 C26           -4.7799     8.0404    -0.6403 C.3     
  27 C27           -4.8269     6.5290    -0.8830 C.3     
  28 H28           -0.4921    -0.2662    -0.2849 H       
  29 H29            2.2859     2.9934    -0.6752 H       
  30 H30            3.1235    -4.3302     1.8395 H       
  31 H31            2.0243    -5.7809     0.1943 H       
  32 H32            0.7548    -4.8086    -1.6732 H       
  33 H33            0.5633    -2.3740    -1.9143 H       
  34 H34            5.0468    -2.2692     2.5678 H       
  35 H35            3.9894    -1.6038     3.8356 H       
  36 H36            3.6812    -3.2309     3.1831 H       
  37 H37           -2.1069     8.7206    -0.1576 H       
  38 H38           -1.6014     8.5563    -1.8591 H       
  39 H39           -3.8211     9.7510    -1.5355 H       
  40 H40           -3.9028     8.3189    -2.5897 H       
  41 H41           -4.5062     8.2320     0.3972 H       
  42 H42           -5.7581     8.4744    -0.8472 H       
  43 H43           -5.2735     6.3285    -1.8569 H       
  44 H44           -5.4174     6.0511    -0.1014 H       
@<TRIPOS>BOND
   1    1    2 1
   2    1    3 2
   3    1    4 1
   4    2    5 2
   5    2   28 1
   6    3    6 1
   7    3   29 1
   8    4    7 2
   9    4    8 am
  10    5    9 1
  11    5    6 1
  12    8   15 1
  13    8   10 1
  14    9   16 ar
  15    9   20 ar
  16   10   12 2
  17   10   11 1
  18   11   13 1
  19   12   14 1
  20   13   14 2
  21   13   27 1
  22   14   24 1
  23   16   17 ar
  24   16   21 1
  25   17   18 ar
  26   17   30 1
  27   18   19 ar
  28   18   31 1
  29   19   20 ar
  30   19   32 1
  31   20   33 1
  32   21   22 1
  33   21   23 2
  34   22   34 1
  35   22   35 1
  36   22   36 1
  37   24   25 1
  38   24   37 1
  39   24   38 1
  40   25   26 1
  41   25   39 1
  42   25   40 1
  43   26   27 1
  44   26   41 1
  45   26   42 1
  46   27   43 1
  47   27   44 1

#	End of record

