#	Name: ASD01900724
#	Creating user name:	WinNT
#	Creation time:	15. 06. 2019 19:52

#	Modifying user name:	WinNT
#	Modification time:	15. 06. 2019 19:52

#	Program:	/corina/corina34_cracker 3.40 0067  02.08.2006

@<TRIPOS>MOLECULE
ASD01900724
  46   50    0    0    0
SMALL
NO_CHARGES


@<TRIPOS>ATOM
   1 C1            -0.0157     1.4087    -0.1144 C.ar    
   2 C2             0.0118     0.0197    -0.1185 C.ar    
   3 C3            -1.1603    -0.7070    -0.0674 C.ar    
   4 C4            -2.3833    -0.0520    -0.0110 C.ar    
   5 C5            -2.4090     1.3491    -0.0108 C.ar    
   6 O6            -3.5356    -0.7546     0.0507 O.3     
   7 C7            -4.7274    -0.1809    -0.1903 C.2     
   8 C8            -4.9042     1.1648    -0.2058 C.2     
   9 C9            -3.7317     2.0233     0.0366 C.2     
  10 C10           -5.8886    -1.0482    -0.4487 C.2     
  11 N11           -7.1038    -0.4998    -0.6950 N.2     
  12 C12           -8.1532    -1.2286    -0.9276 C.2     
  13 N13           -8.0870    -2.5948    -0.9361 N.pl3   
  14 C14           -6.8760    -3.2183    -0.6918 C.2     
  15 C15           -5.7398    -2.4250    -0.4459 C.2     
  16 C16           -1.2278     2.0774    -0.0545 C.ar    
  17 C17           -9.0253    -3.5586    -1.1491 C.2     
  18 C18           -8.4392    -4.7764    -1.0459 C.2     
  19 C19           -7.0848    -4.5832    -0.7582 C.2     
  20 O20            1.1469     2.1119    -0.1635 O.3     
  21 C21            2.3595     1.3577    -0.2178 C.3     
  22 C22            3.5529     2.3138    -0.2677 C.3     
  23 N23            4.7960     1.5406    -0.3234 N.pl3   
  24 C24            5.4290     1.1203    -1.4399 C.2     
  25 C25            5.5360     1.1143     0.7463 C.2     
  26 C26            6.5923     0.4443     0.2472 C.2     
  27 N27            6.5014     0.4638    -1.0908 N.2     
  28 N28           -3.8489     3.3071     0.2803 N.2     
  29 O29           -2.7115     4.0638     0.6527 O.3     
  30 H30            0.9596    -0.4963    -0.1625 H       
  31 H31           -1.1262    -1.7865    -0.0717 H       
  32 H32           -5.8776     1.5943    -0.3911 H       
  33 H33           -9.0998    -0.7449    -1.1182 H       
  34 H34           -4.7789    -2.8782    -0.2520 H       
  35 H35           -1.2538     3.1571    -0.0508 H       
  36 H36          -10.0685    -3.3812    -1.3651 H       
  37 H37           -8.9324    -5.7298    -1.1653 H       
  38 H38           -6.3424    -5.3542    -0.6145 H       
  39 H39            2.4355     0.7277     0.6684 H       
  40 H40            2.3581     0.7314    -1.1099 H       
  41 H41            3.4769     2.9438    -1.1539 H       
  42 H42            3.5543     2.9401     0.6244 H       
  43 H43            5.1016     1.2978    -2.4537 H       
  44 H44            5.3152     1.2828     1.7900 H       
  45 H45            7.3764    -0.0244     0.8233 H       
  46 H46           -2.8964     4.9995     0.8115 H       
@<TRIPOS>BOND
   1    1    2 ar
   2    1   20 1
   3    1   16 ar
   4    2    3 ar
   5    2   30 1
   6    3    4 ar
   7    3   31 1
   8    4    5 ar
   9    4    6 1
  10    5   16 ar
  11    5    9 1
  12    6    7 1
  13    7    8 2
  14    7   10 1
  15    8    9 1
  16    8   32 1
  17    9   28 2
  18   10   11 1
  19   10   15 2
  20   11   12 2
  21   12   13 1
  22   12   33 1
  23   13   14 1
  24   13   17 1
  25   14   15 1
  26   14   19 2
  27   15   34 1
  28   16   35 1
  29   17   18 2
  30   17   36 1
  31   18   19 1
  32   18   37 1
  33   19   38 1
  34   20   21 1
  35   21   22 1
  36   21   39 1
  37   21   40 1
  38   22   23 1
  39   22   41 1
  40   22   42 1
  41   23   24 1
  42   23   25 1
  43   24   27 2
  44   24   43 1
  45   25   26 2
  46   25   44 1
  47   26   27 1
  48   26   45 1
  49   28   29 1
  50   29   46 1

#	End of record

