#	Name: ASD08178515
#	Creating user name:	WinNT
#	Creation time:	15. 06. 2019 21:19

#	Modifying user name:	WinNT
#	Modification time:	15. 06. 2019 21:19

#	Program:	/corina/corina34_cracker 3.40 0067  02.08.2006

@<TRIPOS>MOLECULE
ASD08178515
  46   47    0    0    0
SMALL
NO_CHARGES


@<TRIPOS>ATOM
   1 C1            -0.0154     1.2870     0.0091 C.2     
   2 N2             0.0021    -0.0041     0.0020 N.2     
   3 S3             1.6392     1.8912    -0.0034 S.3     
   4 C4             2.2396     0.2340    -0.0181 C.2     
   5 C5             1.1815    -0.5919    -0.0124 C.2     
   6 C6            -6.0122     1.7540     2.9276 C.2     
   7 N7            -6.2511     0.4831     2.9228 N.2     
   8 N8            -7.4548     0.1076     2.9321 N.2     
   9 C9            -8.3748     1.0294     2.9460 C.2     
  10 S10           -7.5628     2.5965     2.9469 S.3     
  11 N11           -9.7455     0.8178     2.9574 N.pl3   
  12 N12            3.5818    -0.1522    -0.0337 N.pl3   
  13 C13           -1.2561     2.1423     0.0199 C.3     
  14 C14           -1.6686     2.4244     1.4660 C.3     
  15 N15           -2.8747     3.2559     1.4764 N.am    
  16 C16           -4.1979     2.6271     1.4801 C.3     
  17 C17           -4.6510     2.4009     2.9238 C.3     
  18 C18           -2.7670     4.5994     1.4827 C.2     
  19 O19           -3.8755     5.3635     1.4923 O.3     
  20 O20           -1.6695     5.1209     1.4797 O.2     
  21 C21           -3.6839     6.8028     1.4986 C.3     
  22 C22           -2.9081     7.2195     0.2475 C.3     
  23 C23           -5.0464     7.4987     1.5092 C.3     
  24 C24           -2.8952     7.2069     2.7459 C.3     
  25 H25            1.2895    -1.6665    -0.0192 H       
  26 H26          -10.0967    -0.0864     2.9557 H       
  27 H27          -10.3530     1.5740     2.9670 H       
  28 H28            4.2802     0.5209    -0.0373 H       
  29 H29            3.8155    -1.0936    -0.0409 H       
  30 H30           -1.0528     3.0839    -0.4902 H       
  31 H31           -2.0631     1.6184    -0.4925 H       
  32 H32           -1.8719     1.4829     1.9761 H       
  33 H33           -0.8616     2.9484     1.9783 H       
  34 H34           -4.9107     3.2776     0.9732 H       
  35 H35           -4.1467     1.6700     0.9611 H       
  36 H36           -4.7022     3.3580     3.4428 H       
  37 H37           -3.9382     1.7504     3.4307 H       
  38 H38           -3.4700     6.9317    -0.6411 H       
  39 H39           -2.7643     8.3000     0.2522 H       
  40 H40           -1.9374     6.7238     0.2399 H       
  41 H41           -5.5991     7.2018     2.4006 H       
  42 H42           -4.9026     8.5791     1.5140 H       
  43 H43           -5.6083     7.2108     0.6207 H       
  44 H44           -1.9245     6.7111     2.7383 H       
  45 H45           -2.7513     8.2873     2.7506 H       
  46 H46           -3.4479     6.9100     3.6372 H       
@<TRIPOS>BOND
   1    1    2 2
   2    1    3 1
   3    1   13 1
   4    2    5 1
   5    3    4 1
   6    4    5 2
   7    4   12 1
   8    5   25 1
   9    6    7 2
  10    6   10 1
  11    6   17 1
  12    7    8 1
  13    8    9 2
  14    9   10 1
  15    9   11 1
  16   11   26 1
  17   11   27 1
  18   12   28 1
  19   12   29 1
  20   13   14 1
  21   13   30 1
  22   13   31 1
  23   14   15 1
  24   14   32 1
  25   14   33 1
  26   15   16 1
  27   15   18 am
  28   16   17 1
  29   16   34 1
  30   16   35 1
  31   17   36 1
  32   17   37 1
  33   18   19 1
  34   18   20 2
  35   19   21 1
  36   21   22 1
  37   21   23 1
  38   21   24 1
  39   22   38 1
  40   22   39 1
  41   22   40 1
  42   23   41 1
  43   23   42 1
  44   23   43 1
  45   24   44 1
  46   24   45 1
  47   24   46 1

#	End of record

