#	Name: ASD01913750
#	Creating user name:	WinNT
#	Creation time:	15. 06. 2019 20:02

#	Modifying user name:	WinNT
#	Modification time:	15. 06. 2019 20:02

#	Program:	/corina/corina34_cracker 3.40 0067  02.08.2006

@<TRIPOS>MOLECULE
ASD01913750
  51   52    0    0    0
SMALL
NO_CHARGES


@<TRIPOS>ATOM
   1 O1            -0.0163     1.3508     0.0095 O.3     
   2 C2             0.0021    -0.0041     0.0020 C.ar    
   3 N3             1.1629    -0.6408    -0.0125 N.ar    
   4 C4             1.2330    -1.9556    -0.0202 C.ar    
   5 C5             0.0719    -2.7293    -0.0137 C.ar    
   6 C6            -1.1744    -2.0856     0.0016 C.ar    
   7 C7            -1.1994    -0.7064     0.0154 C.ar    
   8 C8             0.1538    -4.2032    -0.0234 C.2     
   9 N9             1.3565    -4.8112    -0.0386 N.am    
  10 O10           -0.8637    -4.8686    -0.0177 O.2     
  11 C11            1.2480     2.0168     0.0010 C.3     
  12 C12            1.0303     3.5079     0.0111 C.ar    
  13 C13            0.9419     4.1851     1.2128 C.ar    
  14 C14            0.7418     5.5532     1.2236 C.ar    
  15 C15            0.6298     6.2450     0.0328 C.ar    
  16 C16            0.7186     5.5677    -1.1718 C.ar    
  17 C17            0.9247     4.1988    -1.1815 C.ar    
  18 C18            1.4378    -6.2739    -0.0482 C.3     
  19 C19            2.7655    -6.7069    -0.6732 C.3     
  20 F20            0.6093     6.2431    -2.3368 F       
  21 C21            1.3543    -6.7988     1.3865 C.3     
  22 O22            3.8459    -6.2736     0.1557 O.3     
  23 C23            5.1380    -6.6292    -0.3405 C.3     
  24 C24            5.3459    -5.9991    -1.7191 C.3     
  25 C25            6.2122    -6.1176     0.6214 C.3     
  26 C26            5.2391    -8.1515    -0.4550 C.3     
  27 H27            2.1983    -2.4397    -0.0320 H       
  28 H28           -2.0916    -2.6557     0.0069 H       
  29 H29           -2.1409    -0.1774     0.0278 H       
  30 H30            2.1684    -4.2803    -0.0432 H       
  31 H31            1.8174     1.7267     0.8840 H       
  32 H32            1.8004     1.7363    -0.8958 H       
  33 H33            1.0289     3.6451     2.1441 H       
  34 H34            0.6725     6.0812     2.1632 H       
  35 H35            0.4728     7.3135     0.0415 H       
  36 H36            0.9941     3.6695    -2.1203 H       
  37 H37            0.6118    -6.6799    -0.6322 H       
  38 H38            2.7884    -7.7930    -0.7617 H       
  39 H39            2.8645    -6.2596    -1.6623 H       
  40 H40            1.4148    -7.8871     1.3794 H       
  41 H41            2.1803    -6.3928     1.9705 H       
  42 H42            0.4085    -6.4903     1.8318 H       
  43 H43            5.2739    -4.9145    -1.6375 H       
  44 H44            6.3315    -6.2703    -2.0976 H       
  45 H45            4.5806    -6.3635    -2.4044 H       
  46 H46            6.0640    -6.5665     1.6036 H       
  47 H47            7.1977    -6.3888     0.2429 H       
  48 H48            6.1401    -5.0330     0.7030 H       
  49 H49            4.4738    -8.5160    -1.1403 H       
  50 H50            6.2247    -8.4227    -0.8335 H       
  51 H51            5.0910    -8.6004     0.5271 H       
@<TRIPOS>BOND
   1    1    2 1
   2    1   11 1
   3    2    3 ar
   4    2    7 ar
   5    3    4 ar
   6    4    5 ar
   7    4   27 1
   8    5    6 ar
   9    5    8 1
  10    6    7 ar
  11    6   28 1
  12    7   29 1
  13    8    9 am
  14    8   10 2
  15    9   18 1
  16    9   30 1
  17   11   12 1
  18   11   31 1
  19   11   32 1
  20   12   13 ar
  21   12   17 ar
  22   13   14 ar
  23   13   33 1
  24   14   15 ar
  25   14   34 1
  26   15   16 ar
  27   15   35 1
  28   16   17 ar
  29   16   20 1
  30   17   36 1
  31   18   19 1
  32   18   21 1
  33   18   37 1
  34   19   22 1
  35   19   38 1
  36   19   39 1
  37   21   40 1
  38   21   41 1
  39   21   42 1
  40   22   23 1
  41   23   24 1
  42   23   25 1
  43   23   26 1
  44   24   43 1
  45   24   44 1
  46   24   45 1
  47   25   46 1
  48   25   47 1
  49   25   48 1
  50   26   49 1
  51   26   50 1
  52   26   51 1

#	End of record

