#	Name: ASD03091314
#	Creating user name:	WinNT
#	Creation time:	15. 06. 2019 20:30

#	Modifying user name:	WinNT
#	Modification time:	15. 06. 2019 20:30

#	Program:	/corina/corina34_cracker 3.40 0067  02.08.2006

@<TRIPOS>MOLECULE
ASD03091314
  58   63    0    0    0
SMALL
NO_CHARGES


@<TRIPOS>ATOM
   1 N1             0.0135     1.3604    -0.1490 N.2     
   2 C2            -0.0317     0.0851     0.1362 C.2     
   3 N3             1.0885    -0.6768     0.3321 N.am    
   4 C4             2.3193    -0.1222     0.2349 C.2     
   5 C5             2.3943     1.3110    -0.0856 C.ar    
   6 C6             3.6139     1.9728    -0.2076 C.ar    
   7 C7             3.6258     3.3238    -0.5115 C.ar    
   8 C8             2.4291     4.0171    -0.6941 C.ar    
   9 C9             1.2263     3.3819    -0.5778 C.ar    
  10 C10            1.1844     2.0182    -0.2711 C.ar    
  11 O11            3.3261    -0.7847     0.4068 O.2     
  12 C12           -1.3544    -0.5641     0.2530 C.ar    
  13 C13           -1.6046    -1.4639     1.2908 C.ar    
  14 C14           -3.8327    -1.7801     0.4722 C.ar    
  15 C15           -2.3606    -0.2760    -0.6702 C.ar    
  16 C16           -2.8413    -2.0659     1.3943 C.ar    
  17 C17           -3.5933    -0.8851    -0.5551 C.ar    
  18 C18           -3.1132    -3.0374     2.5139 C.3     
  19 C19            0.9544    -2.1008     0.6492 C.3     
  20 C20            0.3455    -3.0086    -0.4213 C.3     
  21 C21            1.8433    -3.0820    -0.1176 C.3     
  22 N22            7.6175     4.4571    -1.5669 N.3     
  23 C23            7.2957     3.8486    -0.2670 C.3     
  24 C24            5.9707     3.1053    -0.3350 C.3     
  25 N25            4.8442     3.9969    -0.6356 N.3     
  26 C26            4.9891     4.5808    -1.9764 C.3     
  27 C27            5.6695     5.9390    -1.8933 C.3     
  28 C28            7.1532     5.8515    -1.5976 C.3     
  29 C29            7.2246     3.7065    -2.7402 C.3     
  30 C30            5.7148     3.5943    -2.8731 C.3     
  31 H31            4.5412     1.4376    -0.0662 H       
  32 H32            2.4545     5.0706    -0.9304 H       
  33 H33            0.3082     3.9322    -0.7217 H       
  34 H34           -0.8314    -1.6883     2.0107 H       
  35 H35           -4.7992    -2.2545     0.5576 H       
  36 H36           -2.1750     0.4225    -1.4728 H       
  37 H37           -4.3713    -0.6665    -1.2715 H       
  38 H38           -3.5058    -2.4979     3.3758 H       
  39 H39           -3.8435    -3.7764     2.1843 H       
  40 H40           -2.1869    -3.5405     2.7913 H       
  41 H41            0.7315    -2.3314     1.6909 H       
  42 H42           -0.2776    -3.8368    -0.0839 H       
  43 H43            0.0448    -2.5464    -1.3616 H       
  44 H44            2.5279    -2.6682    -0.8580 H       
  45 H45            2.2055    -3.9585     0.4197 H       
  46 H46            8.0858     3.1497     0.0077 H       
  47 H47            7.2302     4.6308     0.4893 H       
  48 H48            6.0335     2.3420    -1.1106 H       
  49 H49            5.7896     2.6183     0.6232 H       
  50 H50            3.9914     4.7268    -2.3902 H       
  51 H51            5.5323     6.4573    -2.8423 H       
  52 H52            5.1903     6.5224    -1.1070 H       
  53 H53            7.3513     6.3139    -0.6307 H       
  54 H54            7.7022     6.3924    -2.3684 H       
  55 H55            7.6217     4.2020    -3.6261 H       
  56 H56            7.6494     2.7046    -2.6774 H       
  57 H57            5.4098     2.5824    -2.6063 H       
  58 H58            5.4352     3.7854    -3.9092 H       
@<TRIPOS>BOND
   1    1    2 2
   2    1   10 1
   3    2    3 1
   4    2   12 1
   5    3    4 am
   6    3   19 1
   7    4    5 1
   8    4   11 2
   9    5    6 ar
  10    5   10 ar
  11    6    7 ar
  12    6   31 1
  13    7    8 ar
  14    7   25 1
  15    8    9 ar
  16    8   32 1
  17    9   10 ar
  18    9   33 1
  19   12   13 ar
  20   12   15 ar
  21   13   16 ar
  22   13   34 1
  23   14   16 ar
  24   14   17 ar
  25   14   35 1
  26   15   17 ar
  27   15   36 1
  28   16   18 1
  29   17   37 1
  30   18   38 1
  31   18   39 1
  32   18   40 1
  33   19   20 1
  34   19   21 1
  35   19   41 1
  36   20   21 1
  37   20   42 1
  38   20   43 1
  39   21   44 1
  40   21   45 1
  41   22   23 1
  42   22   28 1
  43   22   29 1
  44   23   24 1
  45   23   46 1
  46   23   47 1
  47   24   25 1
  48   24   48 1
  49   24   49 1
  50   25   26 1
  51   26   27 1
  52   26   30 1
  53   26   50 1
  54   27   28 1
  55   27   51 1
  56   27   52 1
  57   28   53 1
  58   28   54 1
  59   29   30 1
  60   29   55 1
  61   29   56 1
  62   30   57 1
  63   30   58 1

#	End of record

