#	Name: ASD04880724
#	Creating user name:	WinNT
#	Creation time:	15. 06. 2019 20:53

#	Modifying user name:	WinNT
#	Modification time:	15. 06. 2019 20:53

#	Program:	/corina/corina34_cracker 3.40 0067  02.08.2006

@<TRIPOS>MOLECULE
ASD04880724
  82   87    0    0    0
SMALL
NO_CHARGES


@<TRIPOS>ATOM
   1 C1             0.0070     1.3660     0.0062 C.ar    
   2 C2            -1.1971     2.0427     0.0684 C.ar    
   3 C3            -1.2157     3.4249     0.1131 C.ar    
   4 C4            -0.0308     4.1338     0.0958 C.ar    
   5 C5             1.1809     3.4570     0.0333 C.ar    
   6 C6             1.1959     2.0689    -0.0114 C.ar    
   7 C7            -0.0520     5.6398     0.1440 C.3     
   8 N8             2.3813     4.1709     0.0152 N.3     
   9 C9             3.1846     3.8810     1.2111 C.3     
  10 C10            3.1436     3.8884    -1.2090 C.3     
  11 C11            4.4101     4.7475    -1.2278 C.3     
  12 N12            5.2134     4.4576    -0.0319 N.3     
  13 C13            4.4511     4.7402     1.1923 C.3     
  14 C14            6.4101     5.1694    -0.0500 C.ar    
  15 C15            6.6414     6.1612     0.8971 C.ar    
  16 C16            7.8258     6.8615     0.8862 C.ar    
  17 C17            8.5704     5.5818    -1.0293 C.ar    
  18 C18            7.3779     4.8811    -1.0163 C.ar    
  19 N19            7.1406     3.8831    -1.9704 N.am    
  20 C20            7.6298     4.0148    -3.2193 C.2     
  21 C21            7.4896     2.9170    -4.1812 C.2     
  22 O22            8.1881     5.0450    -3.5488 O.2     
  23 C23            6.9550     0.9760    -5.0532 C.2     
  24 C24            7.5932     1.6728    -6.0193 C.2     
  25 C25            7.9418     2.9165    -5.4698 C.2     
  26 O26            6.8963     1.7283    -3.9466 O.3     
  27 C27            8.8025     6.5689    -0.0723 C.ar    
  28 C28            8.0791     7.9536     1.8923 C.3     
  29 C29            9.5654     8.0164     2.2353 C.3     
  30 N30           10.3781     8.0725     1.0220 N.am    
  31 C31           10.0682     7.3269    -0.0554 C.2     
  32 O32           10.8268     7.2753    -1.0043 O.2     
  33 C33           11.5482     8.9530     0.9776 C.3     
  34 C34           12.7620     8.2001     1.4581 C.ar    
  35 C35           13.5429     7.5004     0.5570 C.ar    
  36 C36           14.6561     6.8098     0.9976 C.ar    
  37 C37           14.9890     6.8191     2.3395 C.ar    
  38 C38           14.2089     7.5194     3.2402 C.ar    
  39 C39           13.0978     8.2137     2.7987 C.ar    
  40 C40           14.5715     7.5292     4.7029 C.3     
  41 N41           15.4690     8.6593     4.9773 N.3     
  42 C42           14.7778     9.9404     4.7800 C.3     
  43 C43           16.0318     8.5678     6.3311 C.3     
  44 H44            0.0182     0.2864    -0.0241 H       
  45 H45           -2.1253     1.4906     0.0817 H       
  46 H46           -2.1580     3.9504     0.1613 H       
  47 H47            2.1362     1.5397    -0.0600 H       
  48 H48           -0.0227     5.9705     1.1823 H       
  49 H49            0.8150     6.0326    -0.3870 H       
  50 H50           -0.9637     6.0057    -0.3282 H       
  51 H51            2.6030     4.1100     2.1041 H       
  52 H52            3.4606     2.8265     1.2170 H       
  53 H53            3.4191     2.8340    -1.2306 H       
  54 H54            2.5322     4.1227    -2.0804 H       
  55 H55            4.9916     4.5185    -2.1208 H       
  56 H56            4.1341     5.8020    -1.2337 H       
  57 H57            4.1755     5.7945     1.2139 H       
  58 H58            5.0625     4.5058     2.0637 H       
  59 H59            5.8907     6.3822     1.6414 H       
  60 H60            9.3185     5.3654    -1.7776 H       
  61 H61            6.6242     3.0973    -1.7322 H       
  62 H62            6.5573    -0.0228    -5.1565 H       
  63 H63            7.7974     1.3357    -7.0248 H       
  64 H64            8.4658     3.7179    -5.9694 H       
  65 H65            7.7637     8.9098     1.4749 H       
  66 H66            7.5074     7.7504     2.7978 H       
  67 H67            9.7571     8.9052     2.8365 H       
  68 H68            9.8385     7.1308     2.8091 H       
  69 H69           11.7110     9.2894    -0.0463 H       
  70 H70           11.3779     9.8162     1.6210 H       
  71 H71           13.2828     7.4931    -0.4912 H       
  72 H72           15.2657     6.2626     0.2938 H       
  73 H73           15.8585     6.2790     2.6839 H       
  74 H74           12.4903     8.7640     3.5020 H       
  75 H75           13.6659     7.6308     5.3010 H       
  76 H76           15.0733     6.5961     4.9590 H       
  77 H77           13.9239    10.0003     5.4549 H       
  78 H78           15.4649    10.7601     4.9899 H       
  79 H79           14.4316    10.0115     3.7489 H       
  80 H80           16.5973     7.6410     6.4276 H       
  81 H81           16.6924     9.4166     6.5081 H       
  82 H82           15.2234     8.5780     7.0622 H       
@<TRIPOS>BOND
   1    1    2 ar
   2    1    6 ar
   3    1   44 1
   4    2    3 ar
   5    2   45 1
   6    3    4 ar
   7    3   46 1
   8    4    5 ar
   9    4    7 1
  10    5    6 ar
  11    5    8 1
  12    6   47 1
  13    7   48 1
  14    7   49 1
  15    7   50 1
  16    8   10 1
  17    8    9 1
  18    9   13 1
  19    9   51 1
  20    9   52 1
  21   10   11 1
  22   10   53 1
  23   10   54 1
  24   11   12 1
  25   11   55 1
  26   11   56 1
  27   12   13 1
  28   12   14 1
  29   13   57 1
  30   13   58 1
  31   14   15 ar
  32   14   18 ar
  33   15   16 ar
  34   15   59 1
  35   16   28 1
  36   16   27 ar
  37   17   18 ar
  38   17   27 ar
  39   17   60 1
  40   18   19 1
  41   19   20 am
  42   19   61 1
  43   20   21 1
  44   20   22 2
  45   21   26 1
  46   21   25 2
  47   23   24 2
  48   23   26 1
  49   23   62 1
  50   24   25 1
  51   24   63 1
  52   25   64 1
  53   27   31 1
  54   28   29 1
  55   28   65 1
  56   28   66 1
  57   29   30 1
  58   29   67 1
  59   29   68 1
  60   30   31 am
  61   30   33 1
  62   31   32 2
  63   33   34 1
  64   33   69 1
  65   33   70 1
  66   34   35 ar
  67   34   39 ar
  68   35   36 ar
  69   35   71 1
  70   36   37 ar
  71   36   72 1
  72   37   38 ar
  73   37   73 1
  74   38   39 ar
  75   38   40 1
  76   39   74 1
  77   40   41 1
  78   40   75 1
  79   40   76 1
  80   41   42 1
  81   41   43 1
  82   42   77 1
  83   42   78 1
  84   42   79 1
  85   43   80 1
  86   43   81 1
  87   43   82 1

#	End of record

