#	Name: ASD01913480
#	Creating user name:	WinNT
#	Creation time:	15. 06. 2019 20:01

#	Modifying user name:	WinNT
#	Modification time:	15. 06. 2019 20:01

#	Program:	/corina/corina34_cracker 3.40 0067  02.08.2006

@<TRIPOS>MOLECULE
ASD01913480
  34   36    0    0    0
SMALL
NO_CHARGES


@<TRIPOS>ATOM
   1 C1            -0.8078     1.3616    -0.9783 C.ar    
   2 C2            -0.8241    -0.0295    -0.9819 C.ar    
   3 C3            -0.3694    -0.6911    -2.1181 C.ar    
   4 N4             0.0593     0.0210    -3.1472 N.ar    
   5 C5             0.0591     1.3383    -3.1053 C.ar    
   6 N6            -0.3636     2.0012    -2.0476 N.ar    
   7 C7            -1.2491    -2.0816     0.0360 C.ar    
   8 C8            -0.0531    -2.7713     0.1774 C.ar    
   9 N9            -0.0222    -4.0883     0.1246 N.ar    
  10 C10           -1.1136    -4.8027    -0.0623 C.ar    
  11 C11           -2.3500    -4.1866    -0.2122 C.ar    
  12 C12           -2.4240    -2.7979    -0.1629 C.ar    
  13 N13           -3.5041    -4.9516    -0.4107 N.am    
  14 C14           -4.6749    -4.5570     0.1277 C.2     
  15 O15           -1.2723    -0.7242     0.0967 O.3     
  16 C16           -5.8672    -5.4211     0.0161 C.ar    
  17 C17           -7.0837    -5.0151     0.5734 C.ar    
  18 C18           -8.1958    -5.8302     0.4646 C.ar    
  19 C19           -8.1058    -7.0424    -0.1928 C.ar    
  20 C20           -5.7868    -6.6452    -0.6515 C.ar    
  21 O21           -4.7495    -3.4898     0.7052 O.2     
  22 C22           -6.9031    -7.4502    -0.7471 C.ar    
  23 Cl23          -6.8024    -8.9754    -1.5700 Cl      
  24 F24           -7.1724    -3.8303     1.2167 F       
  25 H25           -1.1569     1.9113    -0.1167 H       
  26 H26           -0.3661    -1.7703    -2.1592 H       
  27 H27            0.4159     1.8903    -3.9622 H       
  28 H28            0.8639    -2.2222     0.3322 H       
  29 H29           -1.0463    -5.8800    -0.0998 H       
  30 H30           -3.3701    -2.2895    -0.2757 H       
  31 H31           -3.4617    -5.7660    -0.9359 H       
  32 H32           -9.1363    -5.5188     0.8946 H       
  33 H33           -8.9771    -7.6753    -0.2746 H       
  34 H34           -4.8516    -6.9628    -1.0885 H       
@<TRIPOS>BOND
   1    1    2 ar
   2    1    6 ar
   3    1   25 1
   4    2    3 ar
   5    2   15 1
   6    3    4 ar
   7    3   26 1
   8    4    5 ar
   9    5    6 ar
  10    5   27 1
  11    7    8 ar
  12    7   12 ar
  13    7   15 1
  14    8    9 ar
  15    8   28 1
  16    9   10 ar
  17   10   11 ar
  18   10   29 1
  19   11   12 ar
  20   11   13 1
  21   12   30 1
  22   13   14 am
  23   13   31 1
  24   14   16 1
  25   14   21 2
  26   16   17 ar
  27   16   20 ar
  28   17   18 ar
  29   17   24 1
  30   18   19 ar
  31   18   32 1
  32   19   22 ar
  33   19   33 1
  34   20   22 ar
  35   20   34 1
  36   22   23 1

#	End of record

