#	Name: ASD04882118
#	Creating user name:	WinNT
#	Creation time:	15. 06. 2019 20:54

#	Modifying user name:	WinNT
#	Modification time:	15. 06. 2019 20:54

#	Program:	/corina/corina34_cracker 3.40 0067  02.08.2006

@<TRIPOS>MOLECULE
ASD04882118
  84   89    0    0    0
SMALL
NO_CHARGES


@<TRIPOS>ATOM
   1 C1            -0.3870     1.6285    -1.2835 C.ar    
   2 C2            -0.2447     0.3637    -0.7175 C.ar    
   3 C3            -1.4324    -0.4539    -0.4141 C.2     
   4 O4            -1.3009    -1.5575     0.0801 O.2     
   5 N5            -2.6645     0.0210    -0.6842 N.am    
   6 C6            -3.7867    -0.7969    -0.4986 C.ar    
   7 C7            -5.0020    -0.2361    -0.0949 C.ar    
   8 C8            -6.1160    -1.0463     0.0901 C.ar    
   9 C9            -6.0270    -2.4043    -0.1239 C.ar    
  10 C10           -4.8155    -2.9712    -0.5280 C.ar    
  11 C11           -3.6947    -2.1577    -0.7198 C.ar    
  12 N12           -5.0964     1.1360     0.1226 N.3     
  13 C13           -4.2846     1.5432     1.2779 C.3     
  14 C14           -4.3518     3.0642     1.4346 C.3     
  15 N15           -5.7522     3.4749     1.6076 N.3     
  16 C16           -6.5640     3.0677     0.4523 C.3     
  17 C17           -6.4968     1.5467     0.2956 C.3     
  18 C18           -5.8469     4.8512     1.8257 C.ar    
  19 C19           -5.3393     5.4077     2.9932 C.ar    
  20 C20           -6.0341     7.5779     2.2577 C.ar    
  21 C21           -6.4436     5.6674     0.8735 C.ar    
  22 C22           -5.4342     6.7688     3.2055 C.ar    
  23 C23           -6.5352     7.0282     1.0922 C.ar    
  24 C24           -4.6864     4.5267     4.0269 C.3     
  25 C25           -4.7205    -4.4255    -0.7570 C.2     
  26 N26           -5.8028    -5.2082    -0.5767 N.am    
  27 O27           -3.6658    -4.9180    -1.1086 O.2     
  28 C28           -5.7085    -6.6523    -0.8041 C.3     
  29 C29           -7.0668    -7.3014    -0.5311 C.3     
  30 C30           -6.9683    -8.8097    -0.7686 C.3     
  31 N31           -8.2689    -9.4312    -0.5072 N.am    
  32 C32           -9.2267    -9.6046    -1.4342 C.2     
  33 C33          -10.4371   -10.2673    -0.8141 C.3     
  34 C34          -10.2287   -10.0896     0.7077 C.3     
  35 C35           -8.6911    -9.9501     0.7991 C.3     
  36 O36           -9.1342    -9.2771    -2.5983 O.2     
  37 C37            1.0475    -0.1261    -0.4385 C.ar    
  38 C38            2.1733     0.6634    -0.7330 C.ar    
  39 C39            1.9987     1.9216    -1.2981 C.ar    
  40 C40            0.7299     2.3933    -1.5675 C.ar    
  41 C41            1.5607    -1.3668     0.1349 C.2     
  42 C42            2.9022    -1.2656     0.1550 C.2     
  43 N43            3.2849    -0.0600    -0.3595 N.pl3   
  44 C44            4.6706     0.3962    -0.4941 C.3     
  45 H45           -1.3722     2.0113    -1.5054 H       
  46 H46           -2.7742     0.9291    -1.0070 H       
  47 H47           -7.0533    -0.6104     0.4027 H       
  48 H48           -6.8944    -3.0312     0.0210 H       
  49 H49           -2.7582    -2.5925    -1.0364 H       
  50 H50           -4.6706     1.0674     2.1794 H       
  51 H51           -3.2498     1.2392     1.1205 H       
  52 H52           -3.7738     3.3657     2.3082 H       
  53 H53           -3.9407     3.5400     0.5442 H       
  54 H54           -7.5988     3.3717     0.6097 H       
  55 H55           -6.1780     3.5435    -0.4492 H       
  56 H56           -7.0748     1.2452    -0.5780 H       
  57 H57           -6.9080     1.0709     1.1860 H       
  58 H58           -6.1073     8.6421     2.4264 H       
  59 H59           -6.8352     5.2387    -0.0371 H       
  60 H60           -5.0398     7.2020     4.1128 H       
  61 H61           -7.0031     7.6628     0.3541 H       
  62 H62           -3.6092     4.5089     3.8611 H       
  63 H63           -4.8943     4.9190     5.0224 H       
  64 H64           -5.0833     3.5148     3.9450 H       
  65 H65           -6.6441    -4.8153    -0.2962 H       
  66 H66           -5.4178    -6.8391    -1.8379 H       
  67 H67           -4.9613    -7.0777    -0.1341 H       
  68 H68           -7.3575    -7.1147     0.5027 H       
  69 H69           -7.8140    -6.8761    -1.2011 H       
  70 H70           -6.6776    -8.9964    -1.8024 H       
  71 H71           -6.2211    -9.2350    -0.0987 H       
  72 H72          -11.3515    -9.7682    -1.1348 H       
  73 H73          -10.4676   -11.3254    -1.0740 H       
  74 H74          -10.7280    -9.1899     1.0674 H       
  75 H75          -10.5711   -10.9687     1.2536 H       
  76 H76           -8.2320   -10.9209     0.9857 H       
  77 H77           -8.4235    -9.2476     1.5884 H       
  78 H78            2.8593     2.5329    -1.5263 H       
  79 H79            0.6076     3.3724    -2.0065 H       
  80 H80            0.9747    -2.2065     0.4781 H       
  81 H81            3.5761    -2.0248     0.5236 H       
  82 H82            5.0598     0.0939    -1.4663 H       
  83 H83            4.7052     1.4825    -0.4107 H       
  84 H84            5.2777    -0.0483     0.2945 H       
@<TRIPOS>BOND
   1    1    2 ar
   2    1   40 ar
   3    1   45 1
   4    2    3 1
   5    2   37 ar
   6    3    4 2
   7    3    5 am
   8    5    6 1
   9    5   46 1
  10    6    7 ar
  11    6   11 ar
  12    7    8 ar
  13    7   12 1
  14    8    9 ar
  15    8   47 1
  16    9   10 ar
  17    9   48 1
  18   10   11 ar
  19   10   25 1
  20   11   49 1
  21   12   13 1
  22   12   17 1
  23   13   14 1
  24   13   50 1
  25   13   51 1
  26   14   15 1
  27   14   52 1
  28   14   53 1
  29   15   16 1
  30   15   18 1
  31   16   17 1
  32   16   54 1
  33   16   55 1
  34   17   56 1
  35   17   57 1
  36   18   19 ar
  37   18   21 ar
  38   19   22 ar
  39   19   24 1
  40   20   22 ar
  41   20   23 ar
  42   20   58 1
  43   21   23 ar
  44   21   59 1
  45   22   60 1
  46   23   61 1
  47   24   62 1
  48   24   63 1
  49   24   64 1
  50   25   26 am
  51   25   27 2
  52   26   28 1
  53   26   65 1
  54   28   29 1
  55   28   66 1
  56   28   67 1
  57   29   30 1
  58   29   68 1
  59   29   69 1
  60   30   31 1
  61   30   70 1
  62   30   71 1
  63   31   32 am
  64   31   35 1
  65   32   33 1
  66   32   36 2
  67   33   34 1
  68   33   72 1
  69   33   73 1
  70   34   35 1
  71   34   74 1
  72   34   75 1
  73   35   76 1
  74   35   77 1
  75   37   38 ar
  76   37   41 1
  77   38   39 ar
  78   38   43 1
  79   39   40 ar
  80   39   78 1
  81   40   79 1
  82   41   42 2
  83   41   80 1
  84   42   43 1
  85   42   81 1
  86   43   44 1
  87   44   82 1
  88   44   83 1
  89   44   84 1

#	End of record

