#	Name: ASD02030026
#	Creating user name:	WinNT
#	Creation time:	15. 06. 2019 20:14

#	Modifying user name:	WinNT
#	Modification time:	15. 06. 2019 20:14

#	Program:	/corina/corina34_cracker 3.40 0067  02.08.2006

@<TRIPOS>MOLECULE
ASD02030026
  36   39    0    0    0
SMALL
NO_CHARGES


@<TRIPOS>ATOM
   1 C1            -0.0172     1.4145     0.0098 C.ar    
   2 C2             0.0021    -0.0041     0.0020 C.ar    
   3 C3            -1.2663    -0.7243     0.0107 C.ar    
   4 C4            -2.4639     0.0179     0.0404 C.ar    
   5 C5            -2.4264     1.4148     0.0392 C.ar    
   6 C6            -1.2472     2.0953     0.0194 C.ar    
   7 C7             1.2012     2.1155     0.0020 C.ar    
   8 C8             2.3759     1.4268    -0.0134 C.ar    
   9 C9             2.3909     0.0339    -0.0209 C.ar    
  10 C10            1.2280    -0.6786    -0.0133 C.ar    
  11 C11            1.2074     3.6225     0.0099 C.3     
  12 C12           -1.2991    -2.1942    -0.0250 C.2     
  13 C13           -2.5482    -2.8775     0.4909 C.2     
  14 C14           -3.7834    -2.0965     0.3065 C.2     
  15 C15           -3.7423    -0.7127     0.0890 C.2     
  16 C16           -5.1822    -2.4651     0.2965 C.2     
  17 C17           -5.8618    -1.3176     0.0782 C.2     
  18 O18           -4.9973    -0.2932    -0.0432 O.3     
  19 O19           -0.3605    -2.8355    -0.4523 O.2     
  20 O20           -2.5330    -3.9741     1.0110 O.2     
  21 C21           -5.7614    -3.8429     0.4895 C.3     
  22 C22           -5.9118    -4.1280     1.9851 C.3     
  23 H23           -3.3542     1.9675     0.0502 H       
  24 H24           -1.2568     3.1752     0.0192 H       
  25 H25            3.3100     1.9687    -0.0201 H       
  26 H26            3.3359    -0.4887    -0.0329 H       
  27 H27            1.2532    -1.7583    -0.0191 H       
  28 H28            1.2187     3.9803     1.0395 H       
  29 H29            2.0939     3.9849    -0.5104 H       
  30 H30            0.3140     3.9922    -0.4934 H       
  31 H31           -6.9366    -1.2350     0.0106 H       
  32 H32           -6.7385    -3.8968     0.0093 H       
  33 H33           -5.0962    -4.5824     0.0437 H       
  34 H34           -4.9347    -4.0741     2.4653 H       
  35 H35           -6.5770    -3.3885     2.4309 H       
  36 H36           -6.3307    -5.1246     2.1247 H       
@<TRIPOS>BOND
   1    1    2 ar
   2    1    7 ar
   3    1    6 ar
   4    2    3 ar
   5    2   10 ar
   6    3    4 ar
   7    3   12 1
   8    4    5 ar
   9    4   15 1
  10    5    6 ar
  11    5   23 1
  12    6   24 1
  13    7    8 ar
  14    7   11 1
  15    8    9 ar
  16    8   25 1
  17    9   10 ar
  18    9   26 1
  19   10   27 1
  20   11   28 1
  21   11   29 1
  22   11   30 1
  23   12   13 1
  24   12   19 2
  25   13   14 1
  26   13   20 2
  27   14   15 2
  28   14   16 1
  29   15   18 1
  30   16   17 2
  31   16   21 1
  32   17   18 1
  33   17   31 1
  34   21   22 1
  35   21   32 1
  36   21   33 1
  37   22   34 1
  38   22   35 1
  39   22   36 1

#	End of record

