#	Name: ASD01670057
#	Creating user name:	WinNT
#	Creation time:	15. 06. 2019 19:22

#	Modifying user name:	WinNT
#	Modification time:	15. 06. 2019 19:22

#	Program:	/corina/corina34_cracker 3.40 0067  02.08.2006

@<TRIPOS>MOLECULE
ASD01670057
  72   75    0    0    0
SMALL
NO_CHARGES


@<TRIPOS>ATOM
   1 C1            -0.1866     0.0202    -0.4230 C.ar    
   2 C2             0.3761    -0.1520     0.8289 C.ar    
   3 C3             0.5912    -0.1062    -1.5557 C.ar    
   4 C4             1.7213    -0.4514     0.9544 C.ar    
   5 C5             6.8000    -0.8680     3.7263 C.ar    
   6 C6             7.0226    -0.9934     5.0871 C.ar    
   7 C7             1.9483    -0.4085    -1.4362 C.ar    
   8 C8             5.1548    -2.6164     3.8313 C.ar    
   9 C9             2.5100    -0.5805    -0.1698 C.ar    
  10 C10            5.8747    -1.6706     3.0957 C.ar    
  11 C11            6.3184    -1.9280     5.8305 C.ar    
  12 C12            5.3798    -2.7426     5.2092 C.ar    
  13 C13            5.0436     2.3886     0.3888 C.2     
  14 C14            5.4152     1.3147     1.0405 C.2     
  15 C15            2.7876    -0.5459    -2.6456 C.2     
  16 C16            4.1631    -3.4769     3.1612 C.2     
  17 C17            6.9758    -2.1151    11.4541 C.2     
  18 C18            1.8562    -1.4472    -8.1990 C.3     
  19 C19            2.9641    -0.5449    -7.6304 C.3     
  20 C20            1.5784    -1.8849    -6.7512 C.3     
  21 C21            5.1910    -4.0147     7.2064 C.3     
  22 C22            2.1715    -0.5355    -6.3126 C.3     
  23 C23            5.5733    -2.7247     7.9436 C.3     
  24 C24            3.9749    -0.9062    -0.0313 C.3     
  25 C25            5.6385    -1.5286     1.6141 C.3     
  26 C26            4.4108     0.5440     1.8580 C.3     
  27 C27            6.4105    -1.7773    10.0986 C.3     
  28 C28            3.0537    -0.6300    -5.0662 C.3     
  29 C29            6.1472    -3.0677     9.3198 C.3     
  30 N30            2.2221    -0.4938    -3.8678 N.am    
  31 N31            4.3580    -0.8459     1.3855 N.3     
  32 O32            4.5025    -4.5473     2.6970 O.2     
  33 O33            7.1502    -3.2694    11.7653 O.2     
  34 O34            3.9877    -0.7059    -2.5375 O.2     
  35 O35            2.8802    -3.0765     3.0635 O.3     
  36 O36            7.2855    -1.1335    12.3157 O.3     
  37 O37            4.6734    -3.6593     5.9197 O.3     
  38 O38            6.5602    -2.0386     7.1657 O.3     
  39 H39           -1.2380     0.2498    -0.5142 H       
  40 H40           -0.2370    -0.0520     1.7123 H       
  41 H41            0.1506     0.0281    -2.5325 H       
  42 H42            2.1547    -0.5840     1.9347 H       
  43 H43            7.3513    -0.1341     3.1572 H       
  44 H44            7.7498    -0.3594     5.5725 H       
  45 H45            4.0174     2.7216     0.4374 H       
  46 H46            5.7634     2.9409    -0.1970 H       
  47 H47            6.4414     0.9816     0.9920 H       
  48 H48            1.0337    -0.8950    -8.6536 H       
  49 H49            2.2302    -2.2504    -8.8338 H       
  50 H50            3.9329    -1.0385    -7.5538 H       
  51 H51            3.0222     0.4313    -8.1119 H       
  52 H52            0.5178    -1.9905    -6.5228 H       
  53 H53            2.1683    -2.7448    -6.4342 H       
  54 H54            6.0726    -4.6444     7.0861 H       
  55 H55            4.4303    -4.5508     7.7739 H       
  56 H56            1.4352     0.2659    -6.2516 H       
  57 H57            4.6927    -2.0930     8.0597 H       
  58 H58            4.1622    -1.9087    -0.4161 H       
  59 H59            4.5628    -0.1839    -0.5977 H       
  60 H60            6.4457    -0.9446     1.1718 H       
  61 H61            5.6108    -2.5165     1.1543 H       
  62 H62            4.7069     0.5602     2.9069 H       
  63 H63            3.4274     1.0017     1.7509 H       
  64 H64            5.4760    -1.2296    10.2208 H       
  65 H65            7.1236    -1.1613     9.5507 H       
  66 H66            3.5582    -1.5961    -5.0504 H       
  67 H67            3.7965     0.1675    -5.0855 H       
  68 H68            5.4341    -3.6836     9.8676 H       
  69 H69            7.0817    -3.6153     9.1976 H       
  70 H70            1.2644    -0.3661    -3.9540 H       
  71 H71            2.2665    -3.6747     2.6155 H       
  72 H72            7.6452    -1.3992    13.1730 H       
@<TRIPOS>BOND
   1    1    2 ar
   2    1    3 ar
   3    1   39 1
   4    2    4 ar
   5    2   40 1
   6    3    7 ar
   7    3   41 1
   8    4    9 ar
   9    4   42 1
  10    5    6 ar
  11    5   10 ar
  12    5   43 1
  13    6   11 ar
  14    6   44 1
  15    7    9 ar
  16    7   15 1
  17    8   10 ar
  18    8   12 ar
  19    8   16 1
  20    9   24 1
  21   10   25 1
  22   11   12 ar
  23   11   38 1
  24   12   37 1
  25   13   14 2
  26   13   45 1
  27   13   46 1
  28   14   26 1
  29   14   47 1
  30   15   30 am
  31   15   34 2
  32   16   32 2
  33   16   35 1
  34   17   27 1
  35   17   33 2
  36   17   36 1
  37   18   19 1
  38   18   20 1
  39   18   48 1
  40   18   49 1
  41   19   22 1
  42   19   50 1
  43   19   51 1
  44   20   22 1
  45   20   52 1
  46   20   53 1
  47   21   23 1
  48   21   37 1
  49   21   54 1
  50   21   55 1
  51   22   28 1
  52   22   56 1
  53   23   29 1
  54   23   38 1
  55   23   57 1
  56   24   31 1
  57   24   58 1
  58   24   59 1
  59   25   31 1
  60   25   60 1
  61   25   61 1
  62   26   31 1
  63   26   62 1
  64   26   63 1
  65   27   29 1
  66   27   64 1
  67   27   65 1
  68   28   30 1
  69   28   66 1
  70   28   67 1
  71   29   68 1
  72   29   69 1
  73   30   70 1
  74   35   71 1
  75   36   72 1

#	End of record

