#	Name: ASD00061027
#	Creating user name:	WinNT
#	Creation time:	15. 06. 2019 18:29

#	Modifying user name:	WinNT
#	Modification time:	15. 06. 2019 18:29

#	Program:	/corina/corina34_cracker 3.40 0067  02.08.2006

@<TRIPOS>MOLECULE
ASD00061027
  39   40    0    0    0
SMALL
NO_CHARGES


@<TRIPOS>ATOM
   1 C1            -0.4212     3.9418    -0.3672 C.ar    
   2 C2            -0.9390     2.6608    -0.4658 C.ar    
   3 C3            -0.0935     1.5634    -0.4756 C.ar    
   4 C4             1.2706     1.7394    -0.3870 C.ar    
   5 C5             1.8008     3.0301    -0.2871 C.ar    
   6 C6             0.9408     4.1334    -0.2779 C.ar    
   7 C7             3.2556     3.2262    -0.1917 C.2     
   8 C8             3.8229     4.6182    -0.0843 C.3     
   9 O9             3.9984     2.2677    -0.1996 O.2     
  10 C10            5.3336     4.5371     0.1439 C.3     
  11 C11            5.9207     5.9248     0.1182 C.ar    
  12 C12            6.8845     6.2500    -0.8180 C.ar    
  13 C13            7.4233     7.5225    -0.8421 C.ar    
  14 C14            6.9980     8.4710     0.0710 C.ar    
  15 C15            6.0334     8.1449     1.0077 C.ar    
  16 C16            5.4912     6.8737     1.0272 C.ar    
  17 Br17          -2.8092     2.4086    -0.5872 Br      
  18 Cl18           7.6748    10.0693     0.0417 Cl      
  19 C19            5.6101     3.8915     1.5032 C.3     
  20 C20            7.0912     3.9182     1.7800 C.2     
  21 O21            7.5089     4.4469     2.7830 O.2     
  22 O22            7.9464     3.3547     0.9124 O.3     
  23 C23            4.8840     4.6563     2.5797 C.2     
  24 O24            5.4715     5.4867     3.2317 O.2     
  25 O25            3.5845     4.4151     2.8141 O.3     
  26 H26           -1.0862     4.7929    -0.3647 H       
  27 H27           -0.5043     0.5676    -0.5524 H       
  28 H28            1.9285     0.8830    -0.3943 H       
  29 H29            1.3431     5.1327    -0.2011 H       
  30 H30            3.6235     5.1640    -1.0065 H       
  31 H31            3.3563     5.1370     0.7531 H       
  32 H32            5.7882     3.9356    -0.6432 H       
  33 H33            7.2167     5.5094    -1.5305 H       
  34 H34            8.1765     7.7764    -1.5733 H       
  35 H35            5.7010     8.8849     1.7207 H       
  36 H36            4.7383     6.6190     1.7583 H       
  37 H37            5.2610     2.8589     1.4927 H       
  38 H38            8.8902     3.4616     1.0940 H       
  39 H39            3.1617     4.9306     3.5145 H       
@<TRIPOS>BOND
   1    1    2 ar
   2    1    6 ar
   3    1   26 1
   4    2    3 ar
   5    2   17 1
   6    3    4 ar
   7    3   27 1
   8    4    5 ar
   9    4   28 1
  10    5    6 ar
  11    5    7 1
  12    6   29 1
  13    7    8 1
  14    7    9 2
  15    8   10 1
  16    8   30 1
  17    8   31 1
  18   10   11 1
  19   10   19 1
  20   10   32 1
  21   11   12 ar
  22   11   16 ar
  23   12   13 ar
  24   12   33 1
  25   13   14 ar
  26   13   34 1
  27   14   15 ar
  28   14   18 1
  29   15   16 ar
  30   15   35 1
  31   16   36 1
  32   19   20 1
  33   19   23 1
  34   19   37 1
  35   20   21 2
  36   20   22 1
  37   22   38 1
  38   23   24 2
  39   23   25 1
  40   25   39 1

#	End of record

