#	Name: ASD05060111
#	Creating user name:	WinNT
#	Creation time:	15. 06. 2019 20:56

#	Modifying user name:	WinNT
#	Modification time:	15. 06. 2019 20:56

#	Program:	/corina/corina34_cracker 3.40 0067  02.08.2006

@<TRIPOS>MOLECULE
ASD05060111
  44   46    0    0    0
SMALL
NO_CHARGES


@<TRIPOS>ATOM
   1 C1             0.0461     1.3259    -0.0390 C.ar    
   2 C2             0.1037    -0.0574    -0.0145 C.ar    
   3 C3             1.3244    -0.6958     0.0924 C.ar    
   4 C4             2.4882     0.0461     0.1754 C.ar    
   5 C5             2.4320     1.4270     0.1516 C.ar    
   6 C6             1.2120     2.0678     0.0438 C.ar    
   7 C7             1.1510     3.5733     0.0173 C.3     
   8 N8             0.8038     4.0715     1.3505 N.pl3   
   9 C9             1.8478     4.2403     2.3643 C.3     
  10 C10           -0.5254     4.3862     1.6557 C.ar    
  11 C11            2.4198     5.6313     2.2695 C.ar    
  12 C12            2.0827     6.5832     3.2132 C.ar    
  13 C13            2.6072     7.8591     3.1265 C.ar    
  14 C14            3.4700     8.1846     2.0962 C.ar    
  15 C15            3.8084     7.2346     1.1516 C.ar    
  16 C16            3.2876     5.9545     1.2404 C.ar    
  17 C17           -1.4948     4.3459     0.6583 C.ar    
  18 C18           -2.8078     4.6550     0.9497 C.ar    
  19 C19           -3.1707     5.0085     2.2407 C.ar    
  20 C20           -2.2004     5.0509     3.2510 C.ar    
  21 C21           -0.8735     4.7311     2.9498 C.ar    
  22 O22           -4.4625     5.3130     2.5250 O.3     
  23 C23           -2.5782     5.4257     4.6256 C.2     
  24 O24           -3.7335     5.6988     4.8851 O.2     
  25 O25           -1.6425     5.4654     5.5945 O.3     
  26 F26           -1.1465     1.9511    -0.1491 F       
  27 F27            3.6218     5.0233     0.3204 F       
  28 H28           -0.8053    -0.6372    -0.0786 H       
  29 H29            1.3696    -1.7747     0.1115 H       
  30 H30            3.4419    -0.4537     0.2593 H       
  31 H31            3.3416     2.0055     0.2168 H       
  32 H32            2.1220     3.9711    -0.2777 H       
  33 H33            0.3943     3.8937    -0.6988 H       
  34 H34            1.4195     4.0903     3.3553 H       
  35 H35            2.6391     3.5098     2.1960 H       
  36 H36            1.4089     6.3302     4.0184 H       
  37 H37            2.3427     8.6025     3.8639 H       
  38 H38            3.8792     9.1818     2.0295 H       
  39 H39            4.4818     7.4892     0.3465 H       
  40 H40           -1.2181     4.0718    -0.3490 H       
  41 H41           -3.5546     4.6220     0.1703 H       
  42 H42           -0.1211     4.7574     3.7241 H       
  43 H43           -4.9956     4.5527     2.7950 H       
  44 H44           -1.9382     5.7166     6.4802 H       
@<TRIPOS>BOND
   1    1    2 ar
   2    1    6 ar
   3    1   26 1
   4    2    3 ar
   5    2   28 1
   6    3    4 ar
   7    3   29 1
   8    4    5 ar
   9    4   30 1
  10    5    6 ar
  11    5   31 1
  12    6    7 1
  13    7    8 1
  14    7   32 1
  15    7   33 1
  16    8    9 1
  17    8   10 1
  18    9   11 1
  19    9   34 1
  20    9   35 1
  21   10   17 ar
  22   10   21 ar
  23   11   12 ar
  24   11   16 ar
  25   12   13 ar
  26   12   36 1
  27   13   14 ar
  28   13   37 1
  29   14   15 ar
  30   14   38 1
  31   15   16 ar
  32   15   39 1
  33   16   27 1
  34   17   18 ar
  35   17   40 1
  36   18   19 ar
  37   18   41 1
  38   19   20 ar
  39   19   22 1
  40   20   21 ar
  41   20   23 1
  42   21   42 1
  43   22   43 1
  44   23   24 2
  45   23   25 1
  46   25   44 1

#	End of record

