#	Name: ASD01816557
#	Creating user name:	WinNT
#	Creation time:	15. 06. 2019 19:35

#	Modifying user name:	WinNT
#	Modification time:	15. 06. 2019 19:35

#	Program:	/corina/corina34_cracker 3.40 0067  02.08.2006

@<TRIPOS>MOLECULE
ASD01816557
  54   58    0    0    0
SMALL
NO_CHARGES


@<TRIPOS>ATOM
   1 C1            -0.0167     1.3812     0.0096 C.ar    
   2 C2             0.0021    -0.0041     0.0020 C.ar    
   3 C3             1.1984    -0.6908    -0.0131 C.ar    
   4 C4             2.4015     0.0061    -0.0204 C.ar    
   5 C5             2.3789     1.4106    -0.0127 C.ar    
   6 C6             1.1664     2.0916     0.0022 C.ar    
   7 N7             3.6054    -0.6770    -0.0347 N.pl3   
   8 C8             4.7971    -0.0584    -0.0423 C.2     
   9 C9             4.9001     1.3105    -0.0364 C.2     
  10 C10            3.6673     2.1304    -0.0207 C.2     
  11 C11            5.9972     2.2731    -0.0422 C.2     
  12 N12            5.4244     3.4961    -0.0313 N.am    
  13 N13            4.0322     3.3795    -0.0185 N.2     
  14 C14            6.1581     4.7641    -0.0316 C.3     
  15 O15            7.1917     2.0232    -0.0541 O.2     
  16 C16            3.5781    -2.1418    -0.0413 C.3     
  17 C17            3.5556    -2.6374    -1.4643 C.ar    
  18 C18            4.7435    -2.8866    -2.1269 C.ar    
  19 C19            4.7261    -3.3404    -3.4313 C.ar    
  20 C20            3.5145    -3.5468    -4.0770 C.ar    
  21 C21            2.3235    -3.2961    -3.4089 C.ar    
  22 C22            2.3472    -2.8473    -2.1028 C.ar    
  23 C23            6.3973     5.2057    -1.4525 C.2     
  24 N24            3.4936    -4.0069    -5.4010 N.pl3   
  25 C25            2.3887    -4.2482    -6.1424 C.2     
  26 C26            2.7953    -4.6776    -7.3595 C.2     
  27 C27            4.1944    -4.6999    -7.3632 C.2     
  28 N28            4.6137    -4.2925    -6.1923 N.2     
  29 N29            7.0589     6.3538    -1.6990 N.am    
  30 O30            5.9945     4.5280    -2.3741 O.2     
  31 C31            7.2914     6.7831    -3.0803 C.3     
  32 C32            7.5454     7.1724    -0.5858 C.3     
  33 H33           -0.9602     1.9068     0.0170 H       
  34 H34           -0.9288    -0.5516     0.0083 H       
  35 H35            1.2005    -1.7708    -0.0189 H       
  36 H36            1.1508     3.1714     0.0084 H       
  37 H37            5.6984    -0.6535    -0.0530 H       
  38 H38            5.5743     5.5219     0.4910 H       
  39 H39            7.1149     4.6304     0.4732 H       
  40 H40            4.4658    -2.5240     0.4626 H       
  41 H41            2.6862    -2.4908     0.4791 H       
  42 H42            5.6857    -2.7259    -1.6242 H       
  43 H43            5.6542    -3.5343    -3.9486 H       
  44 H44            1.3794    -3.4554    -3.9087 H       
  45 H45            1.4211    -2.6521    -1.5826 H       
  46 H46            1.3656    -4.1215    -5.8207 H       
  47 H47            2.1533    -4.9543    -8.1827 H       
  48 H48            4.8205    -4.9976    -8.1913 H       
  49 H49            6.4596     7.4043    -3.4126 H       
  50 H50            8.2166     7.3571    -3.1315 H       
  51 H51            7.3709     5.9074    -3.7244 H       
  52 H52            7.2807     6.6962     0.3583 H       
  53 H53            8.6290     7.2694    -0.6525 H       
  54 H54            7.0885     8.1608    -0.6348 H       
@<TRIPOS>BOND
   1    1    2 ar
   2    1    6 ar
   3    1   33 1
   4    2    3 ar
   5    2   34 1
   6    3    4 ar
   7    3   35 1
   8    4    5 ar
   9    4    7 1
  10    5    6 ar
  11    5   10 1
  12    6   36 1
  13    7    8 1
  14    7   16 1
  15    8    9 2
  16    8   37 1
  17    9   10 1
  18    9   11 1
  19   10   13 2
  20   11   12 am
  21   11   15 2
  22   12   13 1
  23   12   14 1
  24   14   23 1
  25   14   38 1
  26   14   39 1
  27   16   17 1
  28   16   40 1
  29   16   41 1
  30   17   18 ar
  31   17   22 ar
  32   18   19 ar
  33   18   42 1
  34   19   20 ar
  35   19   43 1
  36   20   21 ar
  37   20   24 1
  38   21   22 ar
  39   21   44 1
  40   22   45 1
  41   23   29 am
  42   23   30 2
  43   24   25 1
  44   24   28 1
  45   25   26 2
  46   25   46 1
  47   26   27 1
  48   26   47 1
  49   27   28 2
  50   27   48 1
  51   29   31 1
  52   29   32 1
  53   31   49 1
  54   31   50 1
  55   31   51 1
  56   32   52 1
  57   32   53 1
  58   32   54 1

#	End of record

