#	Name: ASD01813902
#	Creating user name:	WinNT
#	Creation time:	15. 06. 2019 19:31

#	Modifying user name:	WinNT
#	Modification time:	15. 06. 2019 19:31

#	Program:	/corina/corina34_cracker 3.40 0067  02.08.2006

@<TRIPOS>MOLECULE
ASD01813902
  59   63    0    0    0
SMALL
NO_CHARGES


@<TRIPOS>ATOM
   1 C1            -0.0169     1.3972     0.0097 C.2     
   2 C2             0.0021    -0.0041     0.0020 C.2     
   3 C3             1.1986    -0.6593    -0.0129 C.2     
   4 C4             2.3918     0.0821    -0.0204 C.2     
   5 N5             2.3437     1.4497    -0.0122 N.am    
   6 C6             1.1421     2.0937     0.0024 C.2     
   7 C7             3.6227    -0.5889    -0.0356 C.2     
   8 C8             4.7877     0.1218    -0.0425 C.2     
   9 C9             4.7345     1.5280    -0.0346 C.2     
  10 C10            3.4812     2.1736    -0.0189 C.2     
  11 O11            3.4258     3.3917    -0.0123 O.2     
  12 C12            5.9703     2.3140    -0.0413 C.2     
  13 O13            5.9124     3.6618    -0.0337 O.3     
  14 O14            7.0487     1.7516    -0.0537 O.2     
  15 C15            3.6593    -2.0954    -0.0439 C.3     
  16 N16            3.7787    -2.5747    -1.4274 N.3     
  17 C17            4.0550    -4.0176    -1.4629 C.3     
  18 C18            4.0930    -4.4914    -2.9177 C.3     
  19 N19            5.1256    -3.7424    -3.6473 N.3     
  20 C20            4.8493    -2.2994    -3.6118 C.3     
  21 C21            4.8113    -1.8256    -2.1570 C.3     
  22 C22            5.2385    -4.1954    -4.9550 C.ar    
  23 N23            4.4663    -5.1797    -5.3830 N.ar    
  24 C24            4.5365    -5.6462    -6.6200 C.ar    
  25 C25            5.4180    -5.1316    -7.5281 C.ar    
  26 C26            6.2606    -4.0919    -7.1399 C.ar    
  27 C27            6.1683    -3.6049    -5.8248 C.ar    
  28 N28            7.2398    -3.3491    -7.7546 N.pl3   
  29 C29            7.7121    -2.4608    -6.8355 C.2     
  30 N30            7.0827    -2.6112    -5.7063 N.2     
  31 C31            7.6926    -3.4871    -9.1410 C.3     
  32 C32            6.7798    -2.6718   -10.0591 C.3     
  33 C33            7.2526    -2.8159   -11.5071 C.3     
  34 H34           -0.9605     1.9226     0.0170 H       
  35 H35           -0.9233    -0.5609     0.0082 H       
  36 H36            1.2282    -1.7389    -0.0187 H       
  37 H37            1.1156     3.1733     0.0087 H       
  38 H38            5.7393    -0.3889    -0.0536 H       
  39 H39            6.7544     4.1373    -0.0385 H       
  40 H40            4.5153    -2.4412     0.5356 H       
  41 H41            2.7412    -2.4836     0.3971 H       
  42 H42            5.0173    -4.2153    -0.9907 H       
  43 H43            3.2701    -4.5514    -0.9270 H       
  44 H44            4.3265    -5.5557    -2.9475 H       
  45 H45            3.1221    -4.3186    -3.3819 H       
  46 H46            5.6342    -1.7656    -4.1477 H       
  47 H47            3.8870    -2.1017    -4.0839 H       
  48 H48            4.5779    -0.7613    -2.1271 H       
  49 H49            5.7823    -1.9984    -1.6927 H       
  50 H50            3.8821    -6.4521    -6.9180 H       
  51 H51            5.4615    -5.5255    -8.5328 H       
  52 H52            8.4915    -1.7359    -7.0184 H       
  53 H53            8.7156    -3.1209    -9.2273 H       
  54 H54            7.6567    -4.5369    -9.4322 H       
  55 H55            5.7568    -3.0380    -9.9728 H       
  56 H56            6.8156    -1.6220    -9.7680 H       
  57 H57            8.2756    -2.4497   -11.5934 H       
  58 H58            7.2167    -3.8657   -11.7982 H       
  59 H59            6.6023    -2.2350   -12.1612 H       
@<TRIPOS>BOND
   1    1    2 1
   2    1    6 2
   3    1   34 1
   4    2    3 2
   5    2   35 1
   6    3    4 1
   7    3   36 1
   8    4    5 1
   9    4    7 2
  10    5    6 1
  11    5   10 am
  12    6   37 1
  13    7    8 1
  14    7   15 1
  15    8    9 2
  16    8   38 1
  17    9   10 1
  18    9   12 1
  19   10   11 2
  20   12   13 1
  21   12   14 2
  22   13   39 1
  23   15   16 1
  24   15   40 1
  25   15   41 1
  26   16   17 1
  27   16   21 1
  28   17   18 1
  29   17   42 1
  30   17   43 1
  31   18   19 1
  32   18   44 1
  33   18   45 1
  34   19   20 1
  35   19   22 1
  36   20   21 1
  37   20   46 1
  38   20   47 1
  39   21   48 1
  40   21   49 1
  41   22   23 ar
  42   22   27 ar
  43   23   24 ar
  44   24   25 ar
  45   24   50 1
  46   25   26 ar
  47   25   51 1
  48   26   27 ar
  49   26   28 1
  50   27   30 1
  51   28   29 1
  52   28   31 1
  53   29   30 2
  54   29   52 1
  55   31   32 1
  56   31   53 1
  57   31   54 1
  58   32   33 1
  59   32   55 1
  60   32   56 1
  61   33   57 1
  62   33   58 1
  63   33   59 1

#	End of record

