#	Name: ASD01885649
#	Creating user name:	WinNT
#	Creation time:	15. 06. 2019 19:49

#	Modifying user name:	WinNT
#	Modification time:	15. 06. 2019 19:49

#	Program:	/corina/corina34_cracker 3.40 0067  02.08.2006

@<TRIPOS>MOLECULE
ASD01885649
  57   61    0    0    0
SMALL
NO_CHARGES


@<TRIPOS>ATOM
   1 C1            -0.9678     1.2950    -0.5541 C.ar    
   2 C2             0.1619     2.1481    -0.4756 C.ar    
   3 C3            -0.0266     3.5505    -0.5651 C.ar    
   4 C4            -1.3219     4.0229    -0.7269 C.ar    
   5 C5            -2.3836     3.1137    -0.7954 C.ar    
   6 N6            -2.1875     1.8120    -0.7045 N.ar    
   7 C7            -0.7791    -0.0978    -0.4649 C.ar    
   8 C8             0.4751    -0.6000    -0.3061 C.ar    
   9 C9             1.5825     0.2427    -0.2291 C.ar    
  10 C10            1.4387     1.5951    -0.3114 C.ar    
  11 C11            1.1219     4.4819    -0.4880 C.ar    
  12 C12            1.2805     5.4786    -1.4512 C.ar    
  13 C13            2.3520     6.3436    -1.3750 C.ar    
  14 C14            3.2702     6.2240    -0.3438 C.ar    
  15 C15            3.1170     5.2354     0.6155 C.ar    
  16 C16            2.0458     4.3692     0.5513 C.ar    
  17 C17           -3.7650     3.6268    -0.9612 C.2     
  18 N18           -4.8011     2.7667    -1.0174 N.am    
  19 O19           -3.9627     4.8225    -1.0465 O.2     
  20 C20            0.6702    -2.0913    -0.2113 C.3     
  21 F21            4.3184     7.0735    -0.2737 F       
  22 N22            0.8799    -2.6426    -1.5524 N.am    
  23 C23            2.0935    -2.7629    -2.1046 C.2     
  24 C24            1.9544    -3.3643    -3.4861 C.3     
  25 C25            0.4339    -3.5729    -3.6381 C.3     
  26 C26           -0.1258    -3.0726    -2.3243 C.2     
  27 O27            3.1383    -2.4408    -1.5809 O.2     
  28 O28           -1.2996    -3.0570    -2.0216 O.2     
  29 C29            2.4663    -2.4099    -4.5340 C.ar    
  30 C30            2.6922    -4.7022    -3.5677 C.3     
  31 C31            3.4380    -2.8206    -5.4274 C.ar    
  32 C32            3.9075    -1.9452    -6.3886 C.ar    
  33 C33            3.4051    -0.6591    -6.4567 C.ar    
  34 C34            2.4328    -0.2487    -5.5639 C.ar    
  35 C35            1.9602    -1.1256    -4.6055 C.ar    
  36 H36           -1.5089     5.0841    -0.7990 H       
  37 H37           -1.6268    -0.7645    -0.5221 H       
  38 H38            2.5674    -0.1818    -0.1022 H       
  39 H39            2.3046     2.2376    -0.2500 H       
  40 H40            0.5657     5.5724    -2.2554 H       
  41 H41            2.4759     7.1153    -2.1204 H       
  42 H42            3.8354     5.1460     1.4170 H       
  43 H43            1.9272     3.5992     1.2993 H       
  44 H44           -4.6432     1.8120    -0.9493 H       
  45 H45           -5.7047     3.1023    -1.1259 H       
  46 H46            1.5401    -2.3053     0.4096 H       
  47 H47           -0.2148    -2.5459     0.2340 H       
  48 H48            0.0477    -2.9863    -4.4718 H       
  49 H49            0.2031    -4.6297    -3.7720 H       
  50 H50            2.2895    -5.3855    -2.8200 H       
  51 H51            2.5586    -5.1308    -4.5610 H       
  52 H52            3.7542    -4.5435    -3.3803 H       
  53 H53            3.8305    -3.8254    -5.3742 H       
  54 H54            4.6672    -2.2658    -7.0861 H       
  55 H55            3.7725     0.0251    -7.2072 H       
  56 H56            2.0406     0.7561    -5.6169 H       
  57 H57            1.2005    -0.8049    -3.9079 H       
@<TRIPOS>BOND
   1    1    7 ar
   2    1    2 ar
   3    1    6 ar
   4    2    3 ar
   5    2   10 ar
   6    3   11 1
   7    3    4 ar
   8    4    5 ar
   9    4   36 1
  10    5   17 1
  11    5    6 ar
  12    7    8 ar
  13    7   37 1
  14    8    9 ar
  15    8   20 1
  16    9   10 ar
  17    9   38 1
  18   10   39 1
  19   11   12 ar
  20   11   16 ar
  21   12   13 ar
  22   12   40 1
  23   13   14 ar
  24   13   41 1
  25   14   15 ar
  26   14   21 1
  27   15   16 ar
  28   15   42 1
  29   16   43 1
  30   17   18 am
  31   17   19 2
  32   18   44 1
  33   18   45 1
  34   20   22 1
  35   20   46 1
  36   20   47 1
  37   22   23 am
  38   22   26 am
  39   23   24 1
  40   23   27 2
  41   24   25 1
  42   24   29 1
  43   24   30 1
  44   25   26 1
  45   25   48 1
  46   25   49 1
  47   26   28 2
  48   29   31 ar
  49   29   35 ar
  50   30   50 1
  51   30   51 1
  52   30   52 1
  53   31   32 ar
  54   31   53 1
  55   32   33 ar
  56   32   54 1
  57   33   34 ar
  58   33   55 1
  59   34   35 ar
  60   34   56 1
  61   35   57 1

#	End of record

