#	Name: ASD01882816
#	Creating user name:	WinNT
#	Creation time:	15. 06. 2019 19:45

#	Modifying user name:	WinNT
#	Modification time:	15. 06. 2019 19:45

#	Program:	/corina/corina34_cracker 3.40 0067  02.08.2006

@<TRIPOS>MOLECULE
ASD01882816
  28   30    0    0    0
SMALL
NO_CHARGES


@<TRIPOS>ATOM
   1 O1            -0.0173     1.4248     0.0099 O.3     
   2 C2             0.0021    -0.0041     0.0020 C.3     
   3 C3             1.2831     0.8325    -0.0057 C.3     
   4 C4            -0.3680    -0.7292     1.2974 C.3     
   5 O5            -1.5561    -1.4961     1.0913 O.3     
   6 C6            -3.6963    -4.5239     5.3218 C.3     
   7 C7            -4.6179    -5.4388     4.4878 C.3     
   8 C8            -4.8616    -4.5952     3.2185 C.3     
   9 C9            -3.6491    -3.6964     3.1013 C.ar    
  10 C10           -3.1716    -2.9723     2.0228 C.ar    
  11 C11           -2.0238    -2.2062     2.1515 C.ar    
  12 C12           -1.3533    -2.1666     3.3656 C.ar    
  13 C13           -1.8319    -2.8897     4.4391 C.ar    
  14 C14           -2.9793    -3.6554     4.3102 C.ar    
  15 H15           -0.2792    -0.5108    -0.9211 H       
  16 H16            1.8523     0.8812    -0.9340 H       
  17 H17            1.8699     0.8713     0.9120 H       
  18 H18            0.4467    -1.3924     1.5881 H       
  19 H19           -0.5402     0.0024     2.0869 H       
  20 H20           -4.2877    -3.9069     5.9983 H       
  21 H21           -2.9783    -5.1213     5.8837 H       
  22 H22           -4.1151    -6.3739     4.2409 H       
  23 H23           -5.5542    -5.6280     5.0129 H       
  24 H24           -4.9394    -5.2413     2.3441 H       
  25 H25           -5.7662    -3.9974     3.3296 H       
  26 H26           -3.6947    -3.0043     1.0785 H       
  27 H27           -0.4583    -1.5712     3.4701 H       
  28 H28           -1.3097    -2.8586     5.3840 H       
@<TRIPOS>BOND
   1    1    2 1
   2    1    3 1
   3    2    3 1
   4    2    4 1
   5    2   15 1
   6    3   16 1
   7    3   17 1
   8    4    5 1
   9    4   18 1
  10    4   19 1
  11    5   11 1
  12    6    7 1
  13    6   14 1
  14    6   20 1
  15    6   21 1
  16    7    8 1
  17    7   22 1
  18    7   23 1
  19    8    9 1
  20    8   24 1
  21    8   25 1
  22    9   10 ar
  23    9   14 ar
  24   10   11 ar
  25   10   26 1
  26   11   12 ar
  27   12   13 ar
  28   12   27 1
  29   13   14 ar
  30   13   28 1

#	End of record

