#	Name: ASD01478071
#	Creating user name:	WinNT
#	Creation time:	15. 06. 2019 19:21

#	Modifying user name:	WinNT
#	Modification time:	15. 06. 2019 19:21

#	Program:	/corina/corina34_cracker 3.40 0067  02.08.2006

@<TRIPOS>MOLECULE
ASD01478071
  27   27    0    0    0
SMALL
NO_CHARGES


@<TRIPOS>ATOM
   1 C1            -0.0187     1.5258     0.0104 C.3     
   2 C2             0.0021    -0.0041     0.0020 C.3     
   3 O3            -0.5394    -0.4945     1.2301 O.3     
   4 C4             0.3673    -1.3021     1.9837 C.3     
   5 C5             0.6312    -0.6434     3.3392 C.3     
   6 S6             2.3703    -0.1371     3.4372 S.o2    
   7 C7             2.2407     1.6696     3.3391 C.3     
   8 C8             2.7617     2.1454     1.9815 C.3     
   9 O9             1.6881     2.7212     1.2345 O.3     
  10 C10            1.4167     2.0553    -0.0004 C.3     
  11 O11           -0.7098     1.9991    -1.1473 O.3     
  12 O12            2.8719    -0.4860     4.7201 O.2     
  13 O13            3.0444    -0.6062     2.2775 O.2     
  14 H14           -0.5289     1.8773     0.9072 H       
  15 H15           -0.5970    -0.3710    -0.8314 H       
  16 H16            1.0289    -0.3529    -0.1073 H       
  17 H17           -0.0677    -2.2895     2.1381 H       
  18 H18            1.3061    -1.3998     1.4384 H       
  19 H19           -0.0088     0.2321     3.4484 H       
  20 H20            0.4141    -1.3539     4.1368 H       
  21 H21            1.1978     1.9658     3.4522 H       
  22 H22            2.8346     2.1202     4.1344 H       
  23 H23            3.5407     2.8926     2.1329 H       
  24 H24            3.1727     1.2980     1.4328 H       
  25 H25            2.1100     1.2235    -0.1247 H       
  26 H26            1.5390     2.7567    -0.8258 H       
  27 H27           -0.7617     2.9629    -1.2077 H       
@<TRIPOS>BOND
   1    1    2 1
   2    1   10 1
   3    1   11 1
   4    1   14 1
   5    2    3 1
   6    2   15 1
   7    2   16 1
   8    3    4 1
   9    4    5 1
  10    4   17 1
  11    4   18 1
  12    5    6 1
  13    5   19 1
  14    5   20 1
  15    6    7 1
  16    6   12 2
  17    6   13 2
  18    7    8 1
  19    7   21 1
  20    7   22 1
  21    8    9 1
  22    8   23 1
  23    8   24 1
  24    9   10 1
  25   10   25 1
  26   10   26 1
  27   11   27 1

#	End of record

