#	Name: ASD01916034
#	Creating user name:	WinNT
#	Creation time:	15. 06. 2019 20:06

#	Modifying user name:	WinNT
#	Modification time:	15. 06. 2019 20:06

#	Program:	/corina/corina34_cracker 3.40 0067  02.08.2006

@<TRIPOS>MOLECULE
ASD01916034
  39   41    0    0    0
SMALL
NO_CHARGES


@<TRIPOS>ATOM
   1 C1            -1.7520     3.4615     2.2615 C.ar    
   2 C2            -1.1413     2.2042     2.1504 C.ar    
   3 C3            -1.9023     1.1428     1.7009 C.ar    
   4 C4            -3.2426     1.3550     1.3750 C.ar    
   5 C5            -4.0643     0.2231     0.8934 C.2     
   6 N6            -5.3905     0.3817     0.7134 N.am    
   7 O7            -3.5433    -0.8500     0.6599 O.2     
   8 C8            -1.0057     4.5933     2.7227 C.1     
   9 C9            -0.3939     5.5212     3.1008 C.1     
  10 C10            0.3524     6.6530     3.5620 C.ar    
  11 C11           -0.2560     7.9105     3.6737 C.ar    
  12 N12            2.3846     7.5621     4.3378 N.ar    
  13 C13            0.5103     8.9718     4.1247 C.ar    
  14 N14           -3.7909     2.5597     1.4917 N.ar    
  15 C15           -3.1018     3.5957     1.9092 C.ar    
  16 C16            1.6987     6.5214     3.9139 C.ar    
  17 C17            1.8398     8.7588     4.4475 C.ar    
  18 C18           -6.1721    -0.6709     0.0598 C.3     
  19 C19           -6.0505     1.6068     1.1716 C.3     
  20 C20           -6.2156    -2.0127     0.7936 C.3     
  21 C21           -7.4238    -0.2462    -0.7108 C.3     
  22 C22           -6.1759    -0.7014    -1.4699 C.3     
  23 Cl23          -0.1882    10.5531     4.2832 Cl      
  24 F24           -6.6467    -1.8110     2.1092 F       
  25 F25           -7.1029    -2.8737     0.1390 F       
  26 F26           -4.9370    -2.5804     0.8038 F       
  27 H27           -0.1016     2.0692     2.4095 H       
  28 H28           -1.4651     0.1601     1.6026 H       
  29 H29           -1.2954     8.0482     3.4146 H       
  30 H30           -3.5824     4.5593     1.9914 H       
  31 H31            2.1803     5.5577     3.8377 H       
  32 H32            2.4395     9.5849     4.8000 H       
  33 H33           -5.9593     2.3769     0.4056 H       
  34 H34           -7.1049     1.4033     1.3585 H       
  35 H35           -5.5784     1.9516     2.0915 H       
  36 H36           -8.2782    -0.9229    -0.6952 H       
  37 H37           -7.6658     0.8164    -0.7313 H       
  38 H38           -5.5968     0.0618    -1.9899 H       
  39 H39           -6.2092    -1.6775    -1.9538 H       
@<TRIPOS>BOND
   1    1    2 ar
   2    1    8 1
   3    1   15 ar
   4    2    3 ar
   5    2   27 1
   6    3    4 ar
   7    3   28 1
   8    4   14 ar
   9    4    5 1
  10    5    6 am
  11    5    7 2
  12    6   19 1
  13    6   18 1
  14    8    9 3
  15    9   10 1
  16   10   11 ar
  17   10   16 ar
  18   11   13 ar
  19   11   29 1
  20   12   17 ar
  21   12   16 ar
  22   13   23 1
  23   13   17 ar
  24   14   15 ar
  25   15   30 1
  26   16   31 1
  27   17   32 1
  28   18   21 1
  29   18   22 1
  30   18   20 1
  31   19   33 1
  32   19   34 1
  33   19   35 1
  34   20   24 1
  35   20   25 1
  36   20   26 1
  37   21   22 1
  38   21   36 1
  39   21   37 1
  40   22   38 1
  41   22   39 1

#	End of record

