#	Name: ASD04910514
#	Creating user name:	WinNT
#	Creation time:	15. 06. 2019 20:56

#	Modifying user name:	WinNT
#	Modification time:	15. 06. 2019 20:56

#	Program:	/corina/corina34_cracker 3.40 0067  02.08.2006

@<TRIPOS>MOLECULE
ASD04910514
  32   32    0    0    0
SMALL
NO_CHARGES


@<TRIPOS>ATOM
   1 C1            -0.0180     1.4754     0.0102 C.2     
   2 C2             0.0021    -0.0041     0.0020 C.ar    
   3 C3             1.2207    -0.6851    -0.0133 C.ar    
   4 C4             1.2405    -2.0626    -0.0209 C.ar    
   5 C5             0.0397    -2.7785    -0.0132 C.ar    
   6 C6            -1.1801    -2.0956     0.0021 C.ar    
   7 C7            -1.1976    -0.7181     0.0154 C.ar    
   8 O8             1.0253     2.0968     0.0035 O.2     
   9 O9            -1.1934     2.1329     0.0193 O.3     
  10 C10            0.0597    -4.2525    -0.0218 C.2     
  11 C11           -1.2350    -5.0236    -0.0136 C.3     
  12 C12           -0.9351    -6.5239    -0.0251 C.3     
  13 C13           -2.2495    -7.3069    -0.0167 C.3     
  14 O14            1.1176    -4.8442    -0.0355 O.2     
  15 F15           -2.9988    -6.9724    -1.1499 F       
  16 F16           -1.9753    -8.6787    -0.0272 F       
  17 F17           -2.9765    -6.9854     1.1345 F       
  18 C18           -1.1371     3.5838     0.0269 C.3     
  19 C19           -2.5587     4.1493     0.0367 C.3     
  20 H20            2.1482    -0.1319    -0.0195 H       
  21 H21            2.1833    -2.5893    -0.0331 H       
  22 H22           -2.1083    -2.6477     0.0080 H       
  23 H23           -2.1397    -0.1903     0.0317 H       
  24 H24           -1.8014    -4.7732     0.8834 H       
  25 H25           -1.8187    -4.7630    -0.8965 H       
  26 H26           -0.3687    -6.7743    -0.9221 H       
  27 H27           -0.3514    -6.7845     0.8578 H       
  28 H28           -0.6054     3.9221     0.9162 H       
  29 H29           -0.6138     3.9318    -0.8637 H       
  30 H30           -3.0905     3.8110    -0.8526 H       
  31 H31           -3.0820     3.8013     0.9273 H       
  32 H32           -2.5165     5.2385     0.0425 H       
@<TRIPOS>BOND
   1    1    2 1
   2    1    8 2
   3    1    9 1
   4    2    3 ar
   5    2    7 ar
   6    3    4 ar
   7    3   20 1
   8    4    5 ar
   9    4   21 1
  10    5    6 ar
  11    5   10 1
  12    6    7 ar
  13    6   22 1
  14    7   23 1
  15    9   18 1
  16   10   11 1
  17   10   14 2
  18   11   12 1
  19   11   24 1
  20   11   25 1
  21   12   13 1
  22   12   26 1
  23   12   27 1
  24   13   15 1
  25   13   16 1
  26   13   17 1
  27   18   19 1
  28   18   28 1
  29   18   29 1
  30   19   30 1
  31   19   31 1
  32   19   32 1

#	End of record

