#	Name: ASD02039386
#	Creating user name:	WinNT
#	Creation time:	15. 06. 2019 20:18

#	Modifying user name:	WinNT
#	Modification time:	15. 06. 2019 20:18

#	Program:	/corina/corina34_cracker 3.40 0067  02.08.2006

@<TRIPOS>MOLECULE
ASD02039386
  53   56    0    0    0
SMALL
NO_CHARGES


@<TRIPOS>ATOM
   1 C1            -0.1211     1.5199    -0.1798 C.ar    
   2 C2            -0.1105     0.1411    -0.0703 C.ar    
   3 C3            -1.2908    -0.5745    -0.1581 C.ar    
   4 C4            -2.5055     1.4784    -0.4564 C.ar    
   5 C5            -1.3117     2.1915    -0.3722 C.ar    
   6 C6            -3.7877     2.1947    -0.6636 C.ar    
   7 C7             1.1697     2.2914    -0.0824 C.3     
   8 N8             1.8257     2.3130    -1.3921 N.am    
   9 C9             1.4074     3.2852    -2.4050 C.3     
  10 C10            2.8141     1.4383    -1.6652 C.2     
  11 C11            3.1762     0.4048    -0.6798 C.2     
  12 C12            4.1874    -0.5033    -0.7981 C.2     
  13 N13            2.5682     0.1863     0.5143 N.2     
  14 C14            3.1596    -0.8072     1.1123 C.2     
  15 N15            4.1700    -1.2593     0.3248 N.pl3   
  16 O16            3.4070     1.5022    -2.7252 O.2     
  17 C17            5.0775    -2.3669     0.6347 C.3     
  18 C18           -4.1161     3.2877     0.1548 C.ar    
  19 C19           -2.4888     0.0861    -0.3559 C.ar    
  20 C20            2.5641     4.2416    -2.7023 C.3     
  21 C21            1.0124     2.5487    -3.6866 C.3     
  22 F22           -3.6417    -0.6130    -0.4417 F       
  23 C23           -4.6488     1.7854    -1.6647 C.ar    
  24 C24           -5.8591     2.4683    -1.8545 C.ar    
  25 C25           -6.1849     3.5672    -1.0201 C.ar    
  26 C26           -5.2831     3.9608    -0.0141 C.ar    
  27 C27           -6.7641     2.0844    -2.8627 C.ar    
  28 C28           -7.9242     2.7940    -2.9920 C.ar    
  29 C29           -8.1828     3.8638    -2.1384 C.ar    
  30 N30           -7.3376     4.2189    -1.2010 N.ar    
  31 H31            0.8234    -0.3789     0.0839 H       
  32 H32           -1.2764    -1.6509    -0.0723 H       
  33 H33           -1.3186     3.2687    -0.4489 H       
  34 H34            0.9595     3.3127     0.2355 H       
  35 H35            1.8254     1.8123     0.6446 H       
  36 H36            0.5536     3.8520    -2.0339 H       
  37 H37            4.8707    -0.6007    -1.6288 H       
  38 H38            2.8923    -1.2056     2.0798 H       
  39 H39            4.6551    -3.2987     0.2588 H       
  40 H40            6.0431    -2.1887     0.1614 H       
  41 H41            5.2094    -2.4372     1.7143 H       
  42 H42           -3.4306     3.5971     0.9300 H       
  43 H43            3.3852     3.6881    -3.1580 H       
  44 H44            2.2258     5.0191    -3.3872 H       
  45 H45            2.9054     4.6988    -1.7736 H       
  46 H46            0.2542     1.8002    -3.4564 H       
  47 H47            0.6119     3.2620    -4.4069 H       
  48 H48            1.8897     2.0591    -4.1094 H       
  49 H49           -4.3916     0.9473    -2.2955 H       
  50 H50           -5.5214     4.7966     0.6270 H       
  51 H51           -6.5469     1.2522    -3.5159 H       
  52 H52           -8.6398     2.5260    -3.7552 H       
  53 H53           -9.1038     4.4162    -2.2522 H       
@<TRIPOS>BOND
   1    1    2 ar
   2    1    7 1
   3    1    5 ar
   4    2    3 ar
   5    2   31 1
   6    3   19 ar
   7    3   32 1
   8    4    5 ar
   9    4    6 1
  10    4   19 ar
  11    5   33 1
  12    6   18 ar
  13    6   23 ar
  14    7    8 1
  15    7   34 1
  16    7   35 1
  17    8    9 1
  18    8   10 am
  19    9   20 1
  20    9   21 1
  21    9   36 1
  22   10   11 1
  23   10   16 2
  24   11   12 2
  25   11   13 1
  26   12   15 1
  27   12   37 1
  28   13   14 2
  29   14   15 1
  30   14   38 1
  31   15   17 1
  32   17   39 1
  33   17   40 1
  34   17   41 1
  35   18   26 ar
  36   18   42 1
  37   19   22 1
  38   20   43 1
  39   20   44 1
  40   20   45 1
  41   21   46 1
  42   21   47 1
  43   21   48 1
  44   23   24 ar
  45   23   49 1
  46   24   25 ar
  47   24   27 ar
  48   25   26 ar
  49   25   30 ar
  50   26   50 1
  51   27   28 ar
  52   27   51 1
  53   28   29 ar
  54   28   52 1
  55   29   30 ar
  56   29   53 1

#	End of record

