#	Name: ASD03091891
#	Creating user name:	WinNT
#	Creation time:	15. 06. 2019 20:31

#	Modifying user name:	WinNT
#	Modification time:	15. 06. 2019 20:31

#	Program:	/corina/corina34_cracker 3.40 0067  02.08.2006

@<TRIPOS>MOLECULE
ASD03091891
  21   22    0    0    0
SMALL
NO_CHARGES


@<TRIPOS>ATOM
   1 O1            -4.7403    -0.1863     0.0472 O.2     
   2 O2            -0.0162     1.3426     0.0094 O.3     
   3 O3             1.0615    -0.5967    -0.0113 O.2     
   4 N4            -1.2258    -2.1267     0.0023 N.pl3   
   5 C5            -2.3717    -2.8864     0.0092 C.ar    
   6 C6            -3.6286    -2.2527     0.0246 C.ar    
   7 C7            -1.2712    -0.7625     0.0101 C.2     
   8 C8            -3.6762    -0.7813     0.0339 C.2     
   9 C9            -2.3104    -4.2776     0.0007 C.ar    
  10 C10           -2.4421    -0.0769     0.0254 C.2     
  11 C11           -4.7960    -3.0172     0.0308 C.ar    
  12 C12           -3.4755    -5.0125     0.0074 C.ar    
  13 C13           -4.7121    -4.3813     0.0218 C.ar    
  14 C14            0.0021    -0.0041     0.0020 C.2     
  15 H15           -0.3637    -2.5713    -0.0042 H       
  16 H16           -2.4362     1.0031     0.0315 H       
  17 H17           -1.3535    -4.7782    -0.0115 H       
  18 H18           -5.7614    -2.5331     0.0430 H       
  19 H19           -3.4265    -6.0913     0.0008 H       
  20 H20           -5.6154    -4.9734     0.0265 H       
  21 H21            0.8393     1.7933     0.0037 H       
@<TRIPOS>BOND
   1    1    8 2
   2    2   14 1
   3    2   21 1
   4    3   14 2
   5    4    5 1
   6    4    7 1
   7    4   15 1
   8    5    6 ar
   9    5    9 ar
  10    6    8 1
  11    6   11 ar
  12    7   10 2
  13    7   14 1
  14    8   10 1
  15    9   12 ar
  16    9   17 1
  17   10   16 1
  18   11   13 ar
  19   11   18 1
  20   12   13 ar
  21   12   19 1
  22   13   20 1

#	End of record

