#	Name: ASD01881756
#	Creating user name:	WinNT
#	Creation time:	15. 06. 2019 19:43

#	Modifying user name:	WinNT
#	Modification time:	15. 06. 2019 19:43

#	Program:	/corina/corina34_cracker 3.40 0067  02.08.2006

@<TRIPOS>MOLECULE
ASD01881756
  40   44    0    0    0
SMALL
NO_CHARGES


@<TRIPOS>ATOM
   1 N1            -0.0154     1.2839     0.0091 N.pl3   
   2 N2             0.0021    -0.0041     0.0020 N.2     
   3 N3             1.2033    -0.4649    -0.0119 N.2     
   4 C4             2.0741     0.5645    -0.0147 C.ar    
   5 C5             1.2843     1.7298    -0.0009 C.ar    
   6 C6             3.4670     0.6759    -0.0271 C.ar    
   7 C7             4.0484     1.9285    -0.0255 C.ar    
   8 C8             3.2560     3.0739    -0.0118 C.ar    
   9 C9             1.8924     2.9784    -0.0004 C.ar    
  10 O10            5.4033     2.0444    -0.0370 O.3     
  11 C11            5.9411     3.3683    -0.0346 C.3     
  12 C12            9.5276     3.9145    -0.0635 C.2     
  13 N13           10.7005     4.5643    -0.0705 N.2     
  14 C14           11.8357     3.9064    -0.0905 C.2     
  15 C15           11.8426     2.5044    -0.1054 C.2     
  16 C16           10.6639     1.8345    -0.0982 C.2     
  17 N17            9.4982     2.5436    -0.0771 N.pl3   
  18 N18            8.2752     4.3474    -0.0498 N.2     
  19 C19            7.4465     3.2990    -0.0485 C.2     
  20 C20            8.1826     2.1675    -0.0660 C.2     
  21 C21           -1.2133     2.1272     0.0196 C.3     
  22 C22           -1.6228     2.4135     1.4657 C.3     
  23 C23           -2.7884     3.3784     1.6921 C.3     
  24 C24           -2.9777     1.8797     1.9352 C.3     
  25 Br25           4.5472    -0.8761    -0.0451 Br      
  26 H26            3.7236     4.0474    -0.0103 H       
  27 H27            1.2882     3.8735     0.0099 H       
  28 H28            5.5939     3.9031    -0.9187 H       
  29 H29            5.6098     3.8935     0.8612 H       
  30 H30           12.7701     4.4480    -0.0959 H       
  31 H31           12.7773     1.9637    -0.1226 H       
  32 H32           10.6478     0.7547    -0.1098 H       
  33 H33            7.8043     1.1559    -0.0724 H       
  34 H34           -1.0007     3.0667    -0.4906 H       
  35 H35           -2.0254     1.6113    -0.4926 H       
  36 H36           -0.8089     2.4286     2.1906 H       
  37 H37           -2.7415     4.0280     2.5661 H       
  38 H38           -3.2635     3.8093     0.8108 H       
  39 H39           -3.5773     1.3246     1.2137 H       
  40 H40           -3.0553     1.5434     2.9691 H       
@<TRIPOS>BOND
   1    1    2 1
   2    1    5 1
   3    1   21 1
   4    2    3 2
   5    3    4 1
   6    4    5 ar
   7    4    6 ar
   8    5    9 ar
   9    6    7 ar
  10    6   25 1
  11    7    8 ar
  12    7   10 1
  13    8    9 ar
  14    8   26 1
  15    9   27 1
  16   10   11 1
  17   11   19 1
  18   11   28 1
  19   11   29 1
  20   12   13 1
  21   12   17 1
  22   12   18 2
  23   13   14 2
  24   14   15 1
  25   14   30 1
  26   15   16 2
  27   15   31 1
  28   16   17 1
  29   16   32 1
  30   17   20 1
  31   18   19 1
  32   19   20 2
  33   20   33 1
  34   21   22 1
  35   21   34 1
  36   21   35 1
  37   22   23 1
  38   22   24 1
  39   22   36 1
  40   23   24 1
  41   23   37 1
  42   23   38 1
  43   24   39 1
  44   24   40 1

#	End of record

