#	Name: ASD01900761
#	Creating user name:	WinNT
#	Creation time:	15. 06. 2019 19:52

#	Modifying user name:	WinNT
#	Modification time:	15. 06. 2019 19:52

#	Program:	/corina/corina34_cracker 3.40 0067  02.08.2006

@<TRIPOS>MOLECULE
ASD01900761
  52   56    0    0    0
SMALL
NO_CHARGES


@<TRIPOS>ATOM
   1 C1            -0.0184     1.4085     0.1341 C.ar    
   2 C2            -0.0083     0.0181     0.1231 C.ar    
   3 C3             1.1888    -0.6775     0.0635 C.ar    
   4 C4             2.3901     0.0141     0.0140 C.ar    
   5 C5             2.3727     1.4163     0.0298 C.ar    
   6 O6             3.5626    -0.6520    -0.0560 O.3     
   7 C7             4.7366    -0.0447     0.1910 C.2     
   8 C8             4.8720     1.3052     0.2216 C.2     
   9 C9             3.6734     2.1305    -0.0105 C.2     
  10 C10            5.9242    -0.8788     0.4389 C.2     
  11 N11            7.1221    -0.2963     0.6909 N.2     
  12 C12            8.1936    -0.9950     0.9146 C.2     
  13 N13            8.1695    -2.3626     0.9072 N.pl3   
  14 C14            6.9779    -3.0202     0.6565 C.2     
  15 C15            5.8177    -2.2594     0.4206 C.2     
  16 C16            1.1693     2.1086     0.0876 C.ar    
  17 C17            9.1371    -3.2996     1.1088 C.2     
  18 C18            8.5885    -4.5335     0.9920 C.2     
  19 C19            7.2286    -4.3786     0.7072 C.2     
  20 O20           -1.1817    -0.6642     0.1717 O.3     
  21 C21           -2.3808     0.1109     0.2324 C.3     
  22 C22           -3.5907    -0.8244     0.2807 C.3     
  23 N23           -3.5632    -1.5964     1.5302 N.3     
  24 C24           -4.8233    -2.3283     1.7250 C.3     
  25 C25           -4.7292    -3.1639     3.0044 C.3     
  26 O26           -4.4256    -2.3055     4.1072 O.3     
  27 C27           -3.2045    -1.5776     3.9511 C.3     
  28 C28           -3.2831    -0.7260     2.6813 C.3     
  29 N29            3.7514     3.4202    -0.2398 N.2     
  30 O30            2.5912     4.1461    -0.6033 O.3     
  31 H31           -0.9572     1.9409     0.1747 H       
  32 H32            1.1864    -1.7575     0.0560 H       
  33 H33            5.8322     1.7622     0.4107 H       
  34 H34            9.1250    -0.4847     1.1106 H       
  35 H35            4.8709    -2.7396     0.2220 H       
  36 H36            1.1639     3.1885     0.0964 H       
  37 H37           10.1746    -3.0927     1.3260 H       
  38 H38            9.1110    -5.4726     1.0997 H       
  39 H39            6.5099    -5.1705     0.5559 H       
  40 H40           -2.3664     0.7329     1.1274 H       
  41 H41           -2.4478     0.7463    -0.6506 H       
  42 H42           -4.5070    -0.2356     0.2374 H       
  43 H43           -3.5567    -1.5066    -0.5688 H       
  44 H44           -5.6463    -1.6191     1.8132 H       
  45 H45           -4.9980    -2.9855     0.8731 H       
  46 H46           -5.6812    -3.6637     3.1835 H       
  47 H47           -3.9411    -3.9090     2.8953 H       
  48 H48           -3.0537    -0.9302     4.8149 H       
  49 H49           -2.3720    -2.2766     3.8696 H       
  50 H50           -2.3335    -0.2134     2.5274 H       
  51 H51           -4.0815     0.0089     2.7848 H       
  52 H52            2.7474     5.0888    -0.7515 H       
@<TRIPOS>BOND
   1    1    2 ar
   2    1   16 ar
   3    1   31 1
   4    2    3 ar
   5    2   20 1
   6    3    4 ar
   7    3   32 1
   8    4    5 ar
   9    4    6 1
  10    5   16 ar
  11    5    9 1
  12    6    7 1
  13    7    8 2
  14    7   10 1
  15    8    9 1
  16    8   33 1
  17    9   29 2
  18   10   11 1
  19   10   15 2
  20   11   12 2
  21   12   13 1
  22   12   34 1
  23   13   14 1
  24   13   17 1
  25   14   15 1
  26   14   19 2
  27   15   35 1
  28   16   36 1
  29   17   18 2
  30   17   37 1
  31   18   19 1
  32   18   38 1
  33   19   39 1
  34   20   21 1
  35   21   22 1
  36   21   40 1
  37   21   41 1
  38   22   23 1
  39   22   42 1
  40   22   43 1
  41   23   24 1
  42   23   28 1
  43   24   25 1
  44   24   44 1
  45   24   45 1
  46   25   26 1
  47   25   46 1
  48   25   47 1
  49   26   27 1
  50   27   28 1
  51   27   48 1
  52   27   49 1
  53   28   50 1
  54   28   51 1
  55   29   30 1
  56   30   52 1

#	End of record

