#	Name: ASD01915512
#	Creating user name:	WinNT
#	Creation time:	15. 06. 2019 20:05

#	Modifying user name:	WinNT
#	Modification time:	15. 06. 2019 20:05

#	Program:	/corina/corina34_cracker 3.40 0067  02.08.2006

@<TRIPOS>MOLECULE
ASD01915512
  40   43    0    0    0
SMALL
NO_CHARGES


@<TRIPOS>ATOM
   1 C1            -0.0042     1.4681     0.2336 C.2     
   2 N2             0.0658     0.1184    -0.0300 N.pl3   
   3 C3            -1.1436    -0.6645    -0.3114 C.3     
   4 C4            -2.3282    -0.0485     0.4310 C.3     
   5 N5            -2.4044     1.3988     0.2637 N.am    
   6 C6            -1.2933     2.1741     0.2848 C.2     
   7 C7             1.2765     1.9054     0.4235 C.2     
   8 C8             2.0757     0.7642     0.2721 C.2     
   9 N9             1.2860    -0.2512     0.0107 N.2     
  10 C10            3.5773     0.7122     0.3883 C.3     
  11 O11            4.0780     2.0183     0.6806 O.3     
  12 C12            5.4239     2.1465     0.8183 C.ar    
  13 C13           -3.6534     1.9999     0.0771 C.ar    
  14 O14           -1.3586     3.3873     0.3431 O.2     
  15 C15            5.9783     3.3861     1.1024 C.ar    
  16 C16            6.2453     1.0370     0.6807 C.ar    
  17 C17            7.6132     1.1700     0.8211 C.ar    
  18 C18            8.1637     2.4076     1.0985 C.ar    
  19 C19            7.3468     3.5139     1.2418 C.ar    
  20 C20           -3.9746     2.5997    -1.1385 C.ar    
  21 C21           -5.2240     3.1815    -1.2751 C.ar    
  22 C22           -6.1046     3.1484    -0.2096 C.ar    
  23 N23           -5.7699     2.5729     0.9285 N.ar    
  24 C24           -4.5938     2.0027     1.0990 C.ar    
  25 H25           -1.3415    -0.6557    -1.3832 H       
  26 H26           -0.9983    -1.6915     0.0238 H       
  27 H27           -3.2493    -0.4953     0.0568 H       
  28 H28           -2.2350    -0.2758     1.4930 H       
  29 H29            1.6019     2.9117     0.6421 H       
  30 H30            3.8562     0.0283     1.1900 H       
  31 H31            4.0027     0.3621    -0.5523 H       
  32 H32            5.3407     4.2506     1.2141 H       
  33 H33            5.8157     0.0701     0.4643 H       
  34 H34            8.2530     0.3065     0.7143 H       
  35 H35            9.2333     2.5096     1.2079 H       
  36 H36            7.7792     4.4796     1.4582 H       
  37 H37           -3.2667     2.6111    -1.9540 H       
  38 H38           -5.5070     3.6559    -2.2032 H       
  39 H39           -7.0802     3.6006    -0.3109 H       
  40 H40           -4.3556     1.5412     2.0459 H       
@<TRIPOS>BOND
   1    1    2 1
   2    1    7 2
   3    1    6 1
   4    2    3 1
   5    2    9 1
   6    3    4 1
   7    3   25 1
   8    3   26 1
   9    4    5 1
  10    4   27 1
  11    4   28 1
  12    5    6 am
  13    5   13 1
  14    6   14 2
  15    7    8 1
  16    7   29 1
  17    8    9 2
  18    8   10 1
  19   10   11 1
  20   10   30 1
  21   10   31 1
  22   11   12 1
  23   12   15 ar
  24   12   16 ar
  25   13   20 ar
  26   13   24 ar
  27   15   19 ar
  28   15   32 1
  29   16   17 ar
  30   16   33 1
  31   17   18 ar
  32   17   34 1
  33   18   19 ar
  34   18   35 1
  35   19   36 1
  36   20   21 ar
  37   20   37 1
  38   21   22 ar
  39   21   38 1
  40   22   23 ar
  41   22   39 1
  42   23   24 ar
  43   24   40 1

#	End of record

