#	Name: ASD01028343
#	Creating user name:	WinNT
#	Creation time:	15. 06. 2019 18:57

#	Modifying user name:	WinNT
#	Modification time:	15. 06. 2019 18:57

#	Program:	/corina/corina34_cracker 3.40 0067  02.08.2006

@<TRIPOS>MOLECULE
ASD01028343
  43   47    0    0    0
SMALL
NO_CHARGES


@<TRIPOS>ATOM
   1 C1            -0.0168     1.4113     0.0301 C.ar    
   2 C2             0.0024    -0.0042     0.0215 C.ar    
   3 C3             1.2113     2.1125     0.0018 C.ar    
   4 C4             2.3819     1.3701    -0.0333 C.ar    
   5 C5             2.3169    -0.0161    -0.0396 C.ar    
   6 N6             1.1708    -0.6562    -0.0127 N.ar    
   7 N7             1.2436     3.4985     0.0086 N.pl3   
   8 C8             2.5252     4.2008     0.1107 C.3     
   9 C9             2.2852     5.6885     0.0965 C.2     
  10 N10            2.0734     6.4723     1.1763 N.pl3   
  11 C11            1.9048     7.7477     0.6919 C.2     
  12 N12            2.0198     7.6758    -0.6241 N.2     
  13 N13            2.2500     6.4557    -0.9645 N.2     
  14 N14            2.0044     6.2300     2.5497 N.2     
  15 C15            1.7784     7.2158     3.3900 C.2     
  16 C16            1.6006     8.5357     2.9236 C.2     
  17 C17            1.6632     8.8025     1.5925 C.2     
  18 C18            1.7089     6.9369     4.8452 C.ar    
  19 C19           -1.2149    -0.7038     0.0496 C.ar    
  20 C20            1.8825     5.6369     5.3164 C.ar    
  21 C21            1.8171     5.3808     6.6727 C.ar    
  22 C22            1.5785     6.4157     7.5648 C.ar    
  23 C23            1.4047     7.7107     7.0995 C.ar    
  24 C24            1.4755     7.9753     5.7449 C.ar    
  25 C25           -2.3921    -0.0150     0.0846 C.ar    
  26 C26           -2.4088     1.3786     0.0925 C.ar    
  27 C27           -1.2446     2.0907     0.0722 C.ar    
  28 F28           -3.5596    -0.6944     0.1115 F       
  29 F29           -1.2739     3.4413     0.0806 F       
  30 F30            1.9853     4.1209     7.1304 F       
  31 F31            1.5147     6.1617     8.8902 F       
  32 F32            1.1716     8.7156     7.9719 F       
  33 H33            3.3398     1.8683    -0.0560 H       
  34 H34            3.2348    -0.5844    -0.0675 H       
  35 H35            0.4176     4.0032    -0.0543 H       
  36 H36            3.0195     3.9214     1.0411 H       
  37 H37            3.1579     3.9268    -0.7335 H       
  38 H38            1.4150     9.3352     3.6257 H       
  39 H39            1.5282     9.8109     1.2300 H       
  40 H40           -1.2192    -1.7837     0.0431 H       
  41 H41            2.0677     4.8305     4.6222 H       
  42 H42            1.3400     8.9838     5.3832 H       
  43 H43           -3.3537     1.9010     0.1197 H       
@<TRIPOS>BOND
   1    1    2 ar
   2    1    3 ar
   3    1   27 ar
   4    2   19 ar
   5    2    6 ar
   6    3    4 ar
   7    3    7 1
   8    4    5 ar
   9    4   33 1
  10    5    6 ar
  11    5   34 1
  12    7    8 1
  13    7   35 1
  14    8    9 1
  15    8   36 1
  16    8   37 1
  17    9   10 1
  18    9   13 2
  19   10   11 1
  20   10   14 1
  21   11   12 2
  22   11   17 1
  23   12   13 1
  24   14   15 2
  25   15   16 1
  26   15   18 1
  27   16   17 2
  28   16   38 1
  29   17   39 1
  30   18   20 ar
  31   18   24 ar
  32   19   25 ar
  33   19   40 1
  34   20   21 ar
  35   20   41 1
  36   21   22 ar
  37   21   30 1
  38   22   23 ar
  39   22   31 1
  40   23   24 ar
  41   23   32 1
  42   24   42 1
  43   25   26 ar
  44   25   28 1
  45   26   27 ar
  46   26   43 1
  47   27   29 1

#	End of record

