#	Name: ASD05060114
#	Creating user name:	WinNT
#	Creation time:	15. 06. 2019 20:56

#	Modifying user name:	WinNT
#	Modification time:	15. 06. 2019 20:56

#	Program:	/corina/corina34_cracker 3.40 0067  02.08.2006

@<TRIPOS>MOLECULE
ASD05060114
  50   52    0    0    0
SMALL
NO_CHARGES


@<TRIPOS>ATOM
   1 C1             0.4469     1.2233    -0.0485 C.ar    
   2 C2             0.6709    -0.1395     0.0153 C.ar    
   3 C3             1.9300    -0.6191     0.3233 C.ar    
   4 C4             2.9656     0.2639     0.5672 C.ar    
   5 C5             2.7418     1.6263     0.5026 C.ar    
   6 C6             1.4820     2.1061     0.1958 C.ar    
   7 C7             1.2377     3.5915     0.1263 C.3     
   8 N8             0.6408     4.0476     1.3840 N.pl3   
   9 C9             1.4979     4.3666     2.5284 C.3     
  10 C10           -0.7485     4.1787     1.4922 C.ar    
  11 C11            1.8712     5.8260     2.4851 C.ar    
  12 C12            1.5255     6.5957     1.3900 C.ar    
  13 C13            1.8679     7.9342     1.3503 C.ar    
  14 C14            2.5558     8.5034     2.4059 C.ar    
  15 C15            2.9006     7.7341     3.5011 C.ar    
  16 C16            2.5543     6.3962     3.5428 C.ar    
  17 C17           -1.4419     3.4479     2.4518 C.ar    
  18 C18           -2.8118     3.5702     2.5656 C.ar    
  19 C19           -3.5078     4.4238     1.7229 C.ar    
  20 C20           -2.8166     5.1637     0.7540 C.ar    
  21 C21           -1.4285     5.0390     0.6482 C.ar    
  22 O22           -4.8553     4.5420     1.8359 O.3     
  23 C23           -3.5493     6.0731    -0.1455 C.2     
  24 O24           -4.7555     6.1826    -0.0480 O.2     
  25 O25           -2.8814     6.7830    -1.0760 O.3     
  26 C26           -0.9245     1.7463    -0.3905 C.3     
  27 C27            2.9257     5.5586     4.7392 C.3     
  28 H28           -0.1380    -0.8292    -0.1752 H       
  29 H29            2.1049    -1.6836     0.3739 H       
  30 H30            3.9493    -0.1109     0.8086 H       
  31 H31            3.5505     2.3160     0.6938 H       
  32 H32            2.1839     4.1081    -0.0352 H       
  33 H33            0.5591     3.8100    -0.6983 H       
  34 H34            0.9618     4.1560     3.4538 H       
  35 H35            2.4018     3.7589     2.4859 H       
  36 H36            0.9882     6.1511     0.5654 H       
  37 H37            1.5985     8.5353     0.4944 H       
  38 H38            2.8240     9.5491     2.3746 H       
  39 H39            3.4382     8.1786     4.3256 H       
  40 H40           -0.9055     2.7812     3.1108 H       
  41 H41           -3.3433     2.9995     3.3127 H       
  42 H42           -0.8886     5.6094    -0.0932 H       
  43 H43           -5.1394     5.2348     2.4478 H       
  44 H44           -3.4048     7.3660    -1.6428 H       
  45 H45           -1.5183     1.8314     0.5195 H       
  46 H46           -0.8333     2.7268    -0.8579 H       
  47 H47           -1.4137     1.0589    -1.0806 H       
  48 H48            3.9318     5.1611     4.6063 H       
  49 H49            2.8942     6.1747     5.6379 H       
  50 H50            2.2196     4.7343     4.8390 H       
@<TRIPOS>BOND
   1    1    2 ar
   2    1    6 ar
   3    1   26 1
   4    2    3 ar
   5    2   28 1
   6    3    4 ar
   7    3   29 1
   8    4    5 ar
   9    4   30 1
  10    5    6 ar
  11    5   31 1
  12    6    7 1
  13    7    8 1
  14    7   32 1
  15    7   33 1
  16    8    9 1
  17    8   10 1
  18    9   11 1
  19    9   34 1
  20    9   35 1
  21   10   17 ar
  22   10   21 ar
  23   11   12 ar
  24   11   16 ar
  25   12   13 ar
  26   12   36 1
  27   13   14 ar
  28   13   37 1
  29   14   15 ar
  30   14   38 1
  31   15   16 ar
  32   15   39 1
  33   16   27 1
  34   17   18 ar
  35   17   40 1
  36   18   19 ar
  37   18   41 1
  38   19   20 ar
  39   19   22 1
  40   20   21 ar
  41   20   23 1
  42   21   42 1
  43   22   43 1
  44   23   24 2
  45   23   25 1
  46   25   44 1
  47   26   45 1
  48   26   46 1
  49   26   47 1
  50   27   48 1
  51   27   49 1
  52   27   50 1

#	End of record

