#	Name: ASD04840031
#	Creating user name:	WinNT
#	Creation time:	15. 06. 2019 20:52

#	Modifying user name:	WinNT
#	Modification time:	15. 06. 2019 20:52

#	Program:	/corina/corina34_cracker 3.40 0067  02.08.2006

@<TRIPOS>MOLECULE
ASD04840031
  39   41    0    0    0
SMALL
NO_CHARGES


@<TRIPOS>ATOM
   1 C1            -0.0187     1.5258     0.0104 C.3     
   2 C2             0.0021    -0.0041     0.0020 C.3     
   3 N3            -1.3723    -0.5112     0.0124 N.pl3   
   4 C4            -0.8050    -4.0346    -0.0118 C.ar    
   5 N5            -2.0125    -4.5503    -0.0035 N.ar    
   6 C6            -3.0984    -3.7672     0.0111 C.ar    
   7 C7            -2.9341    -2.3780     0.0173 C.ar    
   8 C8            -1.6065    -1.8740     0.0073 C.ar    
   9 N9            -0.5961    -2.7305    -0.0065 N.ar    
  10 C10           -4.2015    -1.6791     0.0335 C.2     
  11 C11           -5.2727    -2.4725     0.0394 C.2     
  12 S12           -4.8104    -4.1639     0.0254 S.3     
  13 C13           -6.6698    -1.9889     0.0552 C.ar    
  14 C14           -7.7269    -2.9002     0.0603 C.ar    
  15 C15           -9.2865    -1.0832     0.0857 C.ar    
  16 C16           -6.9372    -0.6192     0.0708 C.ar    
  17 C17           -9.0282    -2.4424     0.0755 C.ar    
  18 C18           -8.2431    -0.1746     0.0860 C.ar    
  19 C19          -10.7105    -0.5903     0.1018 C.3     
  20 P20            1.6916     2.1568    -0.0025 P.3     
  21 O21            2.4039     1.7481    -1.3873 O.3     
  22 O22            1.6730     3.7605     0.1386 O.3     
  23 O23            2.4423     1.5705     1.1303 O.2     
  24 H24           -0.5459     1.8868    -0.8726 H       
  25 H25           -0.5289     1.8773     0.9072 H       
  26 H26            0.5123    -0.3556    -0.8948 H       
  27 H27            0.5293    -0.3651     0.8851 H       
  28 H28           -2.1181     0.1091     0.0229 H       
  29 H29            0.0462    -4.6993    -0.0189 H       
  30 H30           -4.2735    -0.6015     0.0406 H       
  31 H31           -7.5266    -3.9615     0.0520 H       
  32 H32           -6.1236     0.0911     0.0714 H       
  33 H33           -9.8471    -3.1465     0.0791 H       
  34 H34           -8.4514     0.8851     0.0940 H       
  35 H35          -11.0442    -0.4773     1.1333 H       
  36 H36          -10.7675     0.3725    -0.4061 H       
  37 H37          -11.3497    -1.3095    -0.4102 H       
  38 H38            1.9645     2.0987    -2.1741 H       
  39 H39            2.5511     4.1655     0.1390 H       
@<TRIPOS>BOND
   1    1    2 1
   2    1   20 1
   3    1   24 1
   4    1   25 1
   5    2    3 1
   6    2   26 1
   7    2   27 1
   8    3    8 1
   9    3   28 1
  10    4    5 ar
  11    4    9 ar
  12    4   29 1
  13    5    6 ar
  14    6    7 ar
  15    6   12 1
  16    7    8 ar
  17    7   10 1
  18    8    9 ar
  19   10   11 2
  20   10   30 1
  21   11   12 1
  22   11   13 1
  23   13   14 ar
  24   13   16 ar
  25   14   17 ar
  26   14   31 1
  27   15   17 ar
  28   15   18 ar
  29   15   19 1
  30   16   18 ar
  31   16   32 1
  32   17   33 1
  33   18   34 1
  34   19   35 1
  35   19   36 1
  36   19   37 1
  37   20   21 1
  38   20   22 1
  39   20   23 2
  40   21   38 1
  41   22   39 1

#	End of record

