#	Name: ASD09116157
#	Creating user name:	WinNT
#	Creation time:	15. 06. 2019 21:20

#	Modifying user name:	WinNT
#	Modification time:	15. 06. 2019 21:20

#	Program:	/corina/corina34_cracker 3.40 0067  02.08.2006

@<TRIPOS>MOLECULE
ASD09116157
  76   83    0    0    0
SMALL
NO_CHARGES


@<TRIPOS>ATOM
   1 N1            -0.1885     1.8759     0.7184 N.2     
   2 C2            -0.2833     0.4319     0.9970 C.3     
   3 C3             1.0802     2.1379     0.5583 C.2     
   4 N4             1.8609     1.0466     0.6942 N.2     
   5 C5             1.1614    -0.0266     0.9563 C.2     
   6 N6             1.5705     3.3975     0.2789 N.pl3   
   7 C7             2.9539     3.6168     0.2334 C.ar    
   8 C8             3.4827     4.5921    -0.5979 C.ar    
   9 C9             3.8147     2.8606     1.0277 C.ar    
  10 C10            5.1723     3.1109     0.9506 C.ar    
  11 C11            5.6312     4.1019     0.0891 C.ar    
  12 N12            4.7844     4.8040    -0.6466 N.ar    
  13 N13            1.6309    -1.2881     1.1520 N.pl3   
  14 C14           -0.8792     0.1915     2.3601 C.ar    
  15 C15           -1.3661     1.2588     3.0839 C.ar    
  16 N16           -0.9304    -1.0397     2.8381 N.ar    
  17 C17           -1.4399    -1.3037     4.0214 C.ar    
  18 C18           -1.9453    -0.2881     4.8159 C.ar    
  19 C19           -1.9185     1.0241     4.3526 C.ar    
  20 C20           -1.6169    -2.6143     4.7934 C.3     
  21 C21           -3.1592    -2.8584     4.7884 C.3     
  22 C22           -3.7221    -1.7218     5.6752 C.3     
  23 C23           -2.4546    -0.9199     6.1106 C.3     
  24 C24           -1.4191    -2.0944     6.2647 C.3     
  25 C25           -2.4482     2.1335     5.1714 C.2     
  26 N26            6.9966     4.3621     0.0042 N.3     
  27 C27            7.2480     5.7964    -0.1942 C.3     
  28 C28            8.7572     6.0507    -0.2025 C.3     
  29 N29            9.3792     5.2570    -1.2716 N.3     
  30 C30            9.1278     3.8228    -1.0731 C.3     
  31 C31            7.6186     3.5685    -1.0648 C.3     
  32 C32            6.1427     2.3202     1.7899 C.3     
  33 C33           10.8196     5.5316    -1.3611 C.3     
  34 C34           -1.7973     3.2841     5.4385 C.2     
  35 C35           -2.4970     4.1723     6.2272 C.2     
  36 C36           -3.7107     3.7592     6.6061 C.2     
  37 S37           -4.0287     2.1617     5.9428 S.3     
  38 C38           11.4743     4.5187    -2.3026 C.3     
  39 C39           12.9585     4.7079    -2.6220 C.3     
  40 C40           12.5127     3.5673    -1.7049 C.3     
  41 H41           -0.8705    -0.0702     0.2281 H       
  42 H42            0.9575     4.1310     0.1141 H       
  43 H43            2.8219     5.1849    -1.2130 H       
  44 H44            3.4300     2.0976     1.6881 H       
  45 H45            2.5834    -1.4643     1.1017 H       
  46 H46            1.0131    -2.0115     1.3417 H       
  47 H47           -1.3229     2.2600     2.6811 H       
  48 H48           -0.9960    -3.4505     4.4719 H       
  49 H49           -3.5545    -2.7838     3.7753 H       
  50 H50           -3.3934    -3.8314     5.2202 H       
  51 H51           -4.3971    -1.0874     5.1007 H       
  52 H52           -4.2318    -2.1335     6.5463 H       
  53 H53           -2.5776    -0.2475     6.9597 H       
  54 H54           -1.7307    -2.8272     7.0091 H       
  55 H55           -0.4064    -1.7338     6.4448 H       
  56 H56            6.8208     6.1122    -1.1460 H       
  57 H57            6.7884     6.3617     0.6165 H       
  58 H58            8.9466     7.1095    -0.3786 H       
  59 H59            9.1803     5.7602     0.7591 H       
  60 H60            9.5874     3.2574    -1.8839 H       
  61 H61            9.5550     3.5070    -0.1214 H       
  62 H62            7.4292     2.5096    -0.8888 H       
  63 H63            7.1956     3.8590    -2.0265 H       
  64 H64            6.5136     1.4721     1.2144 H       
  65 H65            6.9787     2.9582     2.0767 H       
  66 H66            5.6376     1.9586     2.6856 H       
  67 H67           10.9741     6.5391    -1.7471 H       
  68 H68           11.2673     5.4493    -0.3707 H       
  69 H69           -0.8059     3.4930     5.0644 H       
  70 H70           -2.0941     5.1313     6.5179 H       
  71 H71           -4.3944     4.3230     7.2234 H       
  72 H72           10.8342     4.1319    -3.0955 H       
  73 H73           13.2950     4.4452    -3.6249 H       
  74 H74           13.4686     5.5540    -2.1614 H       
  75 H75           12.7295     3.6629    -0.6410 H       
  76 H76           12.5559     2.5541    -2.1045 H       
@<TRIPOS>BOND
   1    1    2 1
   2    1    3 2
   3    2   14 1
   4    2    5 1
   5    2   41 1
   6    3    4 1
   7    3    6 1
   8    4    5 2
   9    5   13 1
  10    6    7 1
  11    6   42 1
  12    7    8 ar
  13    7    9 ar
  14    8   12 ar
  15    8   43 1
  16    9   10 ar
  17    9   44 1
  18   10   11 ar
  19   10   32 1
  20   11   12 ar
  21   11   26 1
  22   13   45 1
  23   13   46 1
  24   14   15 ar
  25   14   16 ar
  26   15   19 ar
  27   15   47 1
  28   16   17 ar
  29   17   18 ar
  30   17   20 1
  31   18   19 ar
  32   18   23 1
  33   19   25 1
  34   20   21 1
  35   20   24 1
  36   20   48 1
  37   21   22 1
  38   21   49 1
  39   21   50 1
  40   22   23 1
  41   22   51 1
  42   22   52 1
  43   23   24 1
  44   23   53 1
  45   24   54 1
  46   24   55 1
  47   25   34 2
  48   25   37 1
  49   26   27 1
  50   26   31 1
  51   27   28 1
  52   27   56 1
  53   27   57 1
  54   28   29 1
  55   28   58 1
  56   28   59 1
  57   29   30 1
  58   29   33 1
  59   30   31 1
  60   30   60 1
  61   30   61 1
  62   31   62 1
  63   31   63 1
  64   32   64 1
  65   32   65 1
  66   32   66 1
  67   33   38 1
  68   33   67 1
  69   33   68 1
  70   34   35 1
  71   34   69 1
  72   35   36 2
  73   35   70 1
  74   36   37 1
  75   36   71 1
  76   38   39 1
  77   38   40 1
  78   38   72 1
  79   39   40 1
  80   39   73 1
  81   39   74 1
  82   40   75 1
  83   40   76 1

#	End of record

