#	Name: ASD03240045
#	Creating user name:	WinNT
#	Creation time:	15. 06. 2019 20:34

#	Modifying user name:	WinNT
#	Modification time:	15. 06. 2019 20:34

#	Program:	/corina/corina34_cracker 3.40 0067  02.08.2006

@<TRIPOS>MOLECULE
ASD03240045
  55   59    0    0    0
SMALL
NO_CHARGES


@<TRIPOS>ATOM
   1 C1            -0.0169     1.3936     0.0097 C.ar    
   2 C2             0.0021    -0.0041     0.0020 C.ar    
   3 C3             1.1958     2.0928     0.0019 C.ar    
   4 C4             2.3796     1.3597    -0.0134 C.ar    
   5 C5             2.3112    -0.0440    -0.0202 C.ar    
   6 N6             1.1389    -0.6651    -0.0124 N.ar    
   7 C7             3.5609    -0.8383    -0.0364 C.ar    
   8 C8             3.6921     2.0494    -0.0227 C.ar    
   9 C9             3.9419     3.0656    -0.9436 C.ar    
  10 C10            5.1654     3.7040    -0.9477 C.ar    
  11 C11            6.1430     3.3370    -0.0404 C.ar    
  12 C12            5.9008     2.3293     0.8758 C.ar    
  13 C13            4.6788     1.6881     0.8932 C.ar    
  14 C14            3.6284    -2.0516     0.6484 C.ar    
  15 C15            4.7957    -2.7871     0.6296 C.ar    
  16 C16            5.8978    -2.3232    -0.0663 C.ar    
  17 C17            5.8372    -1.1203    -0.7471 C.ar    
  18 C18            4.6735    -0.3789    -0.7413 C.ar    
  19 C19            7.1697    -3.1312    -0.0823 C.3     
  20 N20            7.1466    -4.0582    -1.2217 N.3     
  21 C21            8.3138    -5.8011    -2.4484 C.ar    
  22 C22            8.3737    -4.8644    -1.2694 C.3     
  23 C23            8.8069    -5.3965    -3.6757 C.ar    
  24 C24            8.7541    -6.2502    -4.7590 C.ar    
  25 C25            8.2033    -7.5217    -4.6143 C.ar    
  26 C26            7.7085    -7.9243    -3.3757 C.ar    
  27 C27            7.7711    -7.0645    -2.2979 C.ar    
  28 C28            8.1435    -8.4439    -5.7757 C.2     
  29 C29            7.6218    -9.7038    -5.7224 C.2     
  30 S30            7.8096   -10.3044    -7.3243 S.3     
  31 N31            8.4836    -9.0173    -7.9048 N.2     
  32 N32            8.5850    -8.1382    -6.9868 N.2     
  33 C33           -1.2616     2.1015     0.0195 C.1     
  34 N34           -2.2491     2.6630     0.0272 N.1     
  35 H35           -0.9304    -0.5490     0.0084 H       
  36 H36            1.2128     3.1727     0.0072 H       
  37 H37            3.1796     3.3524    -1.6529 H       
  38 H38            5.3601     4.4914    -1.6607 H       
  39 H39            7.0993     3.8389    -0.0477 H       
  40 H40            6.6679     2.0467     1.5815 H       
  41 H41            4.4906     0.9018     1.6092 H       
  42 H42            2.7689    -2.4145     1.1925 H       
  43 H43            4.8492    -3.7267     1.1594 H       
  44 H44            6.7011    -0.7631    -1.2879 H       
  45 H45            4.6274     0.5599    -1.2732 H       
  46 H46            8.0245    -2.4614    -0.1761 H       
  47 H47            7.2521    -3.6977     0.8453 H       
  48 H48            6.3279    -4.6472    -1.1921 H       
  49 H49            9.2369    -4.2066    -1.3714 H       
  50 H50            8.4644    -5.4429    -0.3500 H       
  51 H51            9.2337    -4.4106    -3.7867 H       
  52 H52            9.1388    -5.9330    -5.7170 H       
  53 H53            7.2805    -8.9089    -3.2582 H       
  54 H54            7.3881    -7.3756    -1.3372 H       
  55 H55            7.1905   -10.2084    -4.8705 H       
@<TRIPOS>BOND
   1    1    2 ar
   2    1    3 ar
   3    1   33 1
   4    2    6 ar
   5    2   35 1
   6    3    4 ar
   7    3   36 1
   8    4    5 ar
   9    4    8 1
  10    5    6 ar
  11    5    7 1
  12    7   14 ar
  13    7   18 ar
  14    8    9 ar
  15    8   13 ar
  16    9   10 ar
  17    9   37 1
  18   10   11 ar
  19   10   38 1
  20   11   12 ar
  21   11   39 1
  22   12   13 ar
  23   12   40 1
  24   13   41 1
  25   14   15 ar
  26   14   42 1
  27   15   16 ar
  28   15   43 1
  29   16   17 ar
  30   16   19 1
  31   17   18 ar
  32   17   44 1
  33   18   45 1
  34   19   20 1
  35   19   46 1
  36   19   47 1
  37   20   22 1
  38   20   48 1
  39   21   22 1
  40   21   23 ar
  41   21   27 ar
  42   22   49 1
  43   22   50 1
  44   23   24 ar
  45   23   51 1
  46   24   25 ar
  47   24   52 1
  48   25   26 ar
  49   25   28 1
  50   26   27 ar
  51   26   53 1
  52   27   54 1
  53   28   29 2
  54   28   32 1
  55   29   30 1
  56   29   55 1
  57   30   31 1
  58   31   32 2
  59   33   34 3

#	End of record

