#	Name: ASD03240495
#	Creating user name:	WinNT
#	Creation time:	15. 06. 2019 20:35

#	Modifying user name:	WinNT
#	Modification time:	15. 06. 2019 20:35

#	Program:	/corina/corina34_cracker 3.40 0067  02.08.2006

@<TRIPOS>MOLECULE
ASD03240495
  44   47    0    0    0
SMALL
NO_CHARGES


@<TRIPOS>ATOM
   1 C1            -0.0727     1.3915     0.3036 C.ar    
   2 C2            -0.0225     0.0356     0.0349 C.ar    
   3 C3             1.0891     2.1363     0.3273 C.ar    
   4 C4             2.3137     1.5202     0.0800 C.ar    
   5 C5             2.3586     0.1543    -0.1901 C.ar    
   6 C6             1.1909    -0.5813    -0.2109 C.ar    
   7 C7             3.5666     2.3165     0.1038 C.2     
   8 C8             4.8268     1.8436    -0.1194 C.2     
   9 N9             5.6783     2.8830    -0.0071 N.pl3   
  10 N10            4.9324     4.0293     0.2927 N.2     
  11 C11            3.6697     3.6986     0.3548 C.2     
  12 C12           -1.2942    -0.7726     0.0103 C.3     
  13 C13           -1.3768    -1.5537    -1.3027 C.3     
  14 C14           -1.2996    -1.7360     1.1691 C.ar    
  15 C15           -2.2104    -1.5757     2.1967 C.ar    
  16 C16           -2.2159    -2.4590     3.2597 C.ar    
  17 C17           -1.3095    -3.5037     3.2954 C.ar    
  18 C18           -0.3982    -3.6636     2.2667 C.ar    
  19 C19           -0.3975    -2.7830     1.2014 C.ar    
  20 Cl20          -1.3153    -4.6132     4.6305 Cl      
  21 N21           -2.6697    -2.2468    -1.3796 N.3     
  22 C22           -2.8866    -2.8134    -2.7238 C.3     
  23 C23           -3.4554    -4.0663    -2.0432 C.3     
  24 C24           -2.5594    -3.6286    -0.8761 C.3     
  25 H25           -1.0231     1.8690     0.4908 H       
  26 H26            1.0487     3.1950     0.5369 H       
  27 H27            3.3054    -0.3282    -0.3825 H       
  28 H28            1.2246    -1.6403    -0.4199 H       
  29 H29            5.0939     0.8218    -0.3452 H       
  30 H30            6.6414     2.8433    -0.1152 H       
  31 H31            2.8489     4.3671     0.5685 H       
  32 H32           -2.1513    -0.1038     0.0898 H       
  33 H33           -1.2836    -0.8644    -2.1419 H       
  34 H34           -0.5696    -2.2850    -1.3418 H       
  35 H35           -2.9176    -0.7600     2.1689 H       
  36 H36           -2.9272    -2.3335     4.0626 H       
  37 H37            0.3095    -4.4789     2.2940 H       
  38 H38            0.3139    -2.9077     0.3984 H       
  39 H39           -3.6234    -2.2663    -3.3120 H       
  40 H40           -1.9624    -2.9983    -3.2713 H       
  41 H41           -4.5231    -4.0129    -1.8306 H       
  42 H42           -3.1536    -5.0038    -2.5103 H       
  43 H43           -1.5479    -4.0311    -0.9305 H       
  44 H44           -3.0190    -3.7724     0.1018 H       
@<TRIPOS>BOND
   1    1    2 ar
   2    1    3 ar
   3    1   25 1
   4    2   12 1
   5    2    6 ar
   6    3    4 ar
   7    3   26 1
   8    4    5 ar
   9    4    7 1
  10    5    6 ar
  11    5   27 1
  12    6   28 1
  13    7    8 2
  14    7   11 1
  15    8    9 1
  16    8   29 1
  17    9   10 1
  18    9   30 1
  19   10   11 2
  20   11   31 1
  21   12   13 1
  22   12   14 1
  23   12   32 1
  24   13   21 1
  25   13   33 1
  26   13   34 1
  27   14   15 ar
  28   14   19 ar
  29   15   16 ar
  30   15   35 1
  31   16   17 ar
  32   16   36 1
  33   17   18 ar
  34   17   20 1
  35   18   19 ar
  36   18   37 1
  37   19   38 1
  38   21   22 1
  39   21   24 1
  40   22   23 1
  41   22   39 1
  42   22   40 1
  43   23   24 1
  44   23   41 1
  45   23   42 1
  46   24   43 1
  47   24   44 1

#	End of record

