#	Name: ASD01910019
#	Creating user name:	WinNT
#	Creation time:	15. 06. 2019 19:55

#	Modifying user name:	WinNT
#	Modification time:	15. 06. 2019 19:55

#	Program:	/corina/corina34_cracker 3.40 0067  02.08.2006

@<TRIPOS>MOLECULE
ASD01910019
  41   44    0    0    0
SMALL
NO_CHARGES


@<TRIPOS>ATOM
   1 N1            -0.0158     1.3125     0.0093 N.2     
   2 C2             0.0021    -0.0041     0.0020 C.2     
   3 C3             1.3450    -0.4256    -0.0131 C.2     
   4 C4             2.1291     0.6845    -0.0146 C.2     
   5 N5             1.3076     1.7709    -0.0009 N.pl3   
   6 C6            -1.1880    -0.8904     0.0086 C.ar    
   7 C7            -2.4687    -0.3414     0.0233 C.ar    
   8 C8            -3.5721    -1.1704     0.0294 C.ar    
   9 C9            -3.4084    -2.5439     0.0215 C.ar    
  10 C10           -2.1394    -3.0943     0.0074 C.ar    
  11 C11           -1.0291    -2.2746    -0.0056 C.ar    
  12 C12            1.7149     3.1113     0.0024 C.ar    
  13 C13            0.9687     4.0668    -0.6747 C.ar    
  14 C14            1.3729     5.3875    -0.6696 C.ar    
  15 C15            2.5193     5.7586     0.0089 C.ar    
  16 C16            3.2645     4.8094     0.6841 C.ar    
  17 C17            2.8625     3.4881     0.6875 C.ar    
  18 N18            3.5222     0.7071    -0.0278 N.am    
  19 C19            4.2149    -0.4489    -0.0411 C.2     
  20 C20            5.6956    -0.4249    -0.0551 C.ar    
  21 O21            3.6243    -1.5112    -0.0416 O.2     
  22 N22            6.3439     0.7366    -0.0546 N.ar    
  23 C23            7.6618     0.7540    -0.0666 C.ar    
  24 C24            8.3738    -0.4365    -0.0803 C.ar    
  25 N25            7.7348    -1.5932    -0.0809 N.ar    
  26 C26            6.4145    -1.6200    -0.0631 C.ar    
  27 H27            1.6906    -1.4488    -0.0213 H       
  28 H28           -2.5976     0.7309     0.0302 H       
  29 H29           -4.5651    -0.7460     0.0408 H       
  30 H30           -4.2746    -3.1890     0.0267 H       
  31 H31           -2.0174    -4.1674     0.0016 H       
  32 H32           -0.0388    -2.7054    -0.0169 H       
  33 H33            0.0735     3.7776    -1.2050 H       
  34 H34            0.7932     6.1311    -1.1963 H       
  35 H35            2.8335     6.7919     0.0111 H       
  36 H36            4.1596     5.1023     1.2127 H       
  37 H37            3.4449     2.7472     1.2150 H       
  38 H38            3.9935     1.5549    -0.0274 H       
  39 H39            8.1884     1.6969    -0.0662 H       
  40 H40            9.4536    -0.4179    -0.0908 H       
  41 H41            5.8924    -2.5654    -0.0632 H       
@<TRIPOS>BOND
   1    1    2 2
   2    1    5 1
   3    2    3 1
   4    2    6 1
   5    3    4 2
   6    3   27 1
   7    4    5 1
   8    4   18 1
   9    5   12 1
  10    6    7 ar
  11    6   11 ar
  12    7    8 ar
  13    7   28 1
  14    8    9 ar
  15    8   29 1
  16    9   10 ar
  17    9   30 1
  18   10   11 ar
  19   10   31 1
  20   11   32 1
  21   12   13 ar
  22   12   17 ar
  23   13   14 ar
  24   13   33 1
  25   14   15 ar
  26   14   34 1
  27   15   16 ar
  28   15   35 1
  29   16   17 ar
  30   16   36 1
  31   17   37 1
  32   18   19 am
  33   18   38 1
  34   19   20 1
  35   19   21 2
  36   20   22 ar
  37   20   26 ar
  38   22   23 ar
  39   23   24 ar
  40   23   39 1
  41   24   25 ar
  42   24   40 1
  43   25   26 ar
  44   26   41 1

#	End of record

