#	Name: ASD03091132
#	Creating user name:	WinNT
#	Creation time:	15. 06. 2019 20:30

#	Modifying user name:	WinNT
#	Modification time:	15. 06. 2019 20:30

#	Program:	/corina/corina34_cracker 3.40 0067  02.08.2006

@<TRIPOS>MOLECULE
ASD03091132
  19   19    0    0    0
SMALL
NO_CHARGES


@<TRIPOS>ATOM
   1 C1             0.0308     1.4567    -0.0352 C.ar    
   2 C2            -0.0411     0.0759    -0.0461 C.ar    
   3 C3             1.1171    -0.6778    -0.0159 C.ar    
   4 C4             2.3488    -0.0519     0.0253 C.ar    
   5 C5             2.4221     1.3305     0.0358 C.ar    
   6 C6             1.2610     2.0846     0.0056 C.ar    
   7 S7            -1.4465     2.4159    -0.0805 S.o2    
   8 O8            -1.0465     3.7745     0.0353 O.2     
   9 O9            -2.2127     1.9214    -1.1703 O.2     
  10 N10           -2.3030     2.0620     1.2919 N.am    
  11 N11           -1.3594    -0.5955    -0.0897 N.pl3   
  12 O12           -1.4230    -1.8041    -0.2266 O.2     
  13 O13           -2.3806     0.0605     0.0113 O.2     
  14 F14            3.6253     1.9434     0.0765 F       
  15 H15            1.0597    -1.7563    -0.0242 H       
  16 H16            3.2536    -0.6410     0.0496 H       
  17 H17            1.3169     3.1631     0.0138 H       
  18 H18           -1.9511     1.4240     1.9323 H       
  19 H19           -3.1566     2.4928     1.4555 H       
@<TRIPOS>BOND
   1    1    2 ar
   2    1    6 ar
   3    1    7 1
   4    2    3 ar
   5    2   11 1
   6    3    4 ar
   7    3   15 1
   8    4    5 ar
   9    4   16 1
  10    5    6 ar
  11    5   14 1
  12    6   17 1
  13    7    8 2
  14    7    9 2
  15    7   10 am
  16   10   18 1
  17   10   19 1
  18   11   12 2
  19   11   13 2

#	End of record

