#	Name: ASD02690009
#	Creating user name:	WinNT
#	Creation time:	15. 06. 2019 20:26

#	Modifying user name:	WinNT
#	Modification time:	15. 06. 2019 20:26

#	Program:	/corina/corina34_cracker 3.40 0067  02.08.2006

@<TRIPOS>MOLECULE
ASD02690009
  69   71    0    0    0
SMALL
NO_CHARGES


@<TRIPOS>ATOM
   1 C1            -0.1014     1.5670    -0.1100 C.3     
   2 N2            -0.0759     0.0990    -0.1354 N.3     
   3 C3             0.5774    -0.3997    -1.3524 C.3     
   4 C4             2.0309     0.0780    -1.3850 C.3     
   5 C5             2.0607     1.6087    -1.3579 C.3     
   6 C6             1.3319     2.1035    -0.1055 C.3     
   7 C7             5.1586     3.8631    -1.8137 C.ar    
   8 C8             3.8307     3.4188    -1.8390 C.ar    
   9 C9             3.4905     2.0842    -1.3294 C.2     
  10 C10            5.4709     5.1102    -2.2903 C.ar    
  11 C11            4.4716     5.9337    -2.7978 C.ar    
  12 C12            3.1514     5.4972    -2.8257 C.ar    
  13 C13            2.8284     4.2518    -2.3515 C.ar    
  14 C14           -1.4303    -0.4535    -0.0009 C.3     
  15 C15           -1.3758    -1.9788    -0.1327 C.3     
  16 N16           -2.7138    -2.5245     0.1331 N.am    
  17 C17           -3.3902    -2.1585     1.3849 C.3     
  18 C18           -3.4222    -0.6312     1.4998 C.3     
  19 C19           -1.9987    -0.0841     1.3712 C.3     
  20 C20           -3.3095    -3.3450    -0.7548 C.2     
  21 C21           -4.6001    -3.9841    -0.4205 C.ar    
  22 C22           -5.5980    -4.0976    -1.3898 C.ar    
  23 C23           -6.7998    -4.6954    -1.0714 C.ar    
  24 C24           -7.0173    -5.1815     0.2057 C.ar    
  25 C25           -6.0323    -5.0721     1.1712 C.ar    
  26 C26           -4.8239    -4.4816     0.8643 C.ar    
  27 O27           -1.1772    -0.6494     2.3947 O.3     
  28 O28            4.3602     1.3645    -0.8856 O.2     
  29 O29            4.7858     7.1670    -3.2677 O.3     
  30 O30           -2.7857    -3.5596    -1.8305 O.2     
  31 C31            3.7115     7.9611    -3.7748 C.3     
  32 H32           -0.6247     1.9365    -0.9918 H       
  33 H33           -0.6187     1.9057     0.7876 H       
  34 H34            0.5531    -1.4894    -1.3571 H       
  35 H35            0.0509    -0.0210    -2.2284 H       
  36 H36            2.5617    -0.3117    -0.5164 H       
  37 H37            2.5110    -0.2792    -2.2960 H       
  38 H38            1.5639     1.9985    -2.2464 H       
  39 H39            1.3125     3.1933    -0.1024 H       
  40 H40            1.8516     1.7456     0.7832 H       
  41 H41            5.9345     3.2262    -1.4154 H       
  42 H42            6.4946     5.4538    -2.2712 H       
  43 H43            2.3790     6.1408    -3.2201 H       
  44 H44            1.8030     3.9137    -2.3736 H       
  45 H45           -2.0698    -0.0434    -0.7825 H       
  46 H46           -1.0655    -2.2474    -1.1425 H       
  47 H47           -0.6663    -2.3828     0.5894 H       
  48 H48           -4.4091    -2.5457     1.3765 H       
  49 H49           -2.8450    -2.5772     2.2308 H       
  50 H50           -4.0434    -0.2195     0.7043 H       
  51 H51           -3.8348    -0.3477     2.4680 H       
  52 H52           -2.0156     1.0006     1.4772 H       
  53 H53           -5.4297    -3.7180    -2.3868 H       
  54 H54           -7.5728    -4.7839    -1.8204 H       
  55 H55           -7.9602    -5.6480     0.4500 H       
  56 H56           -6.2084    -5.4535     2.1661 H       
  57 H57           -4.0557    -4.3972     1.6187 H       
  58 H58           -1.4779    -0.4544     3.2929 H       
  59 H59            4.0991     8.9205    -4.1175 H       
  60 H60            3.2379     7.4421    -4.6082 H       
  61 H61            2.9780     8.1265    -2.9857 H       
  62 C62           12.7940    18.0318     8.3068 C.1     
  63 C63           12.8099    16.8580     8.3003 C.1     
  64 O64           12.7756    19.3867     8.3143 O.3     
  65 O65           12.8283    15.5031     8.2929 O.3     
  66 O66           14.1094    20.0024     8.3048 O.3     
  67 O67           11.4946    14.8874     8.3023 O.3     
  68 H68           14.0962    20.9693     8.3101 H       
  69 H69           11.5077    13.9205     8.2970 H       
@<TRIPOS>BOND
   1    1    2 1
   2    1    6 1
   3    1   32 1
   4    1   33 1
   5    2    3 1
   6    2   14 1
   7    3    4 1
   8    3   34 1
   9    3   35 1
  10    4    5 1
  11    4   36 1
  12    4   37 1
  13    5    6 1
  14    5    9 1
  15    5   38 1
  16    6   39 1
  17    6   40 1
  18    7    8 ar
  19    7   10 ar
  20    7   41 1
  21    8    9 1
  22    8   13 ar
  23    9   28 2
  24   10   11 ar
  25   10   42 1
  26   11   12 ar
  27   11   29 1
  28   12   13 ar
  29   12   43 1
  30   13   44 1
  31   14   15 1
  32   14   19 1
  33   14   45 1
  34   15   16 1
  35   15   46 1
  36   15   47 1
  37   16   17 1
  38   16   20 am
  39   17   18 1
  40   17   48 1
  41   17   49 1
  42   18   19 1
  43   18   50 1
  44   18   51 1
  45   19   27 1
  46   19   52 1
  47   20   21 1
  48   20   30 2
  49   21   22 ar
  50   21   26 ar
  51   22   23 ar
  52   22   53 1
  53   23   24 ar
  54   23   54 1
  55   24   25 ar
  56   24   55 1
  57   25   26 ar
  58   25   56 1
  59   26   57 1
  60   27   58 1
  61   29   31 1
  62   31   59 1
  63   31   60 1
  64   31   61 1
  65   62   63 3
  66   62   64 1
  67   63   65 1
  68   64   66 1
  69   65   67 1
  70   66   68 1
  71   67   69 1

#	End of record

