#	Name: ASD01914964
#	Creating user name:	WinNT
#	Creation time:	15. 06. 2019 20:04

#	Modifying user name:	WinNT
#	Modification time:	15. 06. 2019 20:04

#	Program:	/corina/corina34_cracker 3.40 0067  02.08.2006

@<TRIPOS>MOLECULE
ASD01914964
  63   66    0    0    0
SMALL
NO_CHARGES


@<TRIPOS>ATOM
   1 C1            -0.0158     1.3120     0.0093 C.2     
   2 N2             0.0021    -0.0041     0.0020 N.2     
   3 C3             1.3183     1.7636    -0.0011 C.2     
   4 C4             2.1227     0.6785    -0.0146 C.2     
   5 N5             1.3391    -0.4213    -0.0130 N.pl3   
   6 C6            -1.2277     2.1688     0.0199 C.ar    
   7 C7            -2.4942     1.5876     0.0235 C.ar    
   8 C8            -3.6181     2.3878     0.0339 C.ar    
   9 C9            -3.4888     3.7673     0.0403 C.ar    
  10 C10           -2.2317     4.3491     0.0367 C.ar    
  11 C11           -1.1022     3.5562     0.0321 C.ar    
  12 C12            3.6296     0.6927    -0.0293 C.3     
  13 C13            1.8063    -1.8097    -0.0245 C.3     
  14 C14            1.9797    -2.2931     1.3923 C.2     
  15 N15            2.4045    -3.5502     1.6282 N.am    
  16 O16            1.7369    -1.5510     2.3203 O.2     
  17 C17            2.5783    -4.0360     3.0039 C.3     
  18 C18            3.9980    -4.5914     3.1550 C.3     
  19 C19            4.2442    -5.6510     2.0786 C.3     
  20 C20            4.1205    -5.0119     0.6935 C.3     
  21 C21            2.6968    -4.4630     0.5146 C.3     
  22 C22            4.1525     0.8152     1.4033 C.3     
  23 C23            5.6280    -6.2240     2.2453 C.ar    
  24 C24            6.7198    -5.5918     1.6806 C.ar    
  25 C25            5.6823     0.8297     1.3883 C.3     
  26 F26           -4.5919     4.5472     0.0495 F       
  27 C27           -4.9883     1.7604     0.0378 C.3     
  28 C28            7.9800    -6.1590     1.8621 C.ar    
  29 N29            8.0857    -7.2798     2.5670 N.ar    
  30 C30            7.0185    -7.8502     3.0884 C.ar    
  31 N31            5.8138    -7.3370     2.9396 N.ar    
  32 O32            9.0803    -5.5761     1.3273 O.3     
  33 C33           10.3341    -6.2212     1.5599 C.3     
  34 H34            1.6408     2.7944     0.0011 H       
  35 H35           -2.5959     0.5124     0.0179 H       
  36 H36           -2.1353     5.4248     0.0417 H       
  37 H37           -0.1224     4.0106     0.0294 H       
  38 H38            3.9973    -0.2327    -0.4724 H       
  39 H39            3.9792     1.5412    -0.6175 H       
  40 H40            1.0740    -2.4353    -0.5348 H       
  41 H41            2.7609    -1.8675    -0.5475 H       
  42 H42            2.4316    -3.2129     3.7033 H       
  43 H43            1.8538    -4.8245     3.2073 H       
  44 H44            4.7193    -3.7823     3.0408 H       
  45 H45            4.1093    -5.0420     4.1413 H       
  46 H46            3.5070    -6.4478     2.1780 H       
  47 H47            4.8406    -4.1988     0.6024 H       
  48 H48            4.3189    -5.7618    -0.0722 H       
  49 H49            1.9844    -5.2880     0.5146 H       
  50 H50            2.6304    -3.9201    -0.4283 H       
  51 H51            3.7847     1.7407     1.8464 H       
  52 H52            3.8029    -0.0332     1.9915 H       
  53 H53            6.5994    -4.6813     1.1125 H       
  54 H54            6.0501    -0.0958     0.9452 H       
  55 H55            6.0319     1.6782     0.8001 H       
  56 H56            6.0549     0.9170     2.4090 H       
  57 H57           -5.3131     1.6036     1.0664 H       
  58 H58           -5.6918     2.4212    -0.4686 H       
  59 H59           -4.9510     0.8028    -0.4814 H       
  60 H60            7.1348    -8.7611     3.6569 H       
  61 H61           11.1299    -5.6528     1.0787 H       
  62 H62           10.5223    -6.2736     2.6322 H       
  63 H63           10.3063    -7.2293     1.1462 H       
@<TRIPOS>BOND
   1    1    2 2
   2    1    3 1
   3    1    6 1
   4    2    5 1
   5    3    4 2
   6    3   34 1
   7    4    5 1
   8    4   12 1
   9    5   13 1
  10    6    7 ar
  11    6   11 ar
  12    7    8 ar
  13    7   35 1
  14    8    9 ar
  15    8   27 1
  16    9   10 ar
  17    9   26 1
  18   10   11 ar
  19   10   36 1
  20   11   37 1
  21   12   22 1
  22   12   38 1
  23   12   39 1
  24   13   14 1
  25   13   40 1
  26   13   41 1
  27   14   15 am
  28   14   16 2
  29   15   17 1
  30   15   21 1
  31   17   18 1
  32   17   42 1
  33   17   43 1
  34   18   19 1
  35   18   44 1
  36   18   45 1
  37   19   20 1
  38   19   23 1
  39   19   46 1
  40   20   21 1
  41   20   47 1
  42   20   48 1
  43   21   49 1
  44   21   50 1
  45   22   25 1
  46   22   51 1
  47   22   52 1
  48   23   24 ar
  49   23   31 ar
  50   24   28 ar
  51   24   53 1
  52   25   54 1
  53   25   55 1
  54   25   56 1
  55   27   57 1
  56   27   58 1
  57   27   59 1
  58   28   29 ar
  59   28   32 1
  60   29   30 ar
  61   30   31 ar
  62   30   60 1
  63   32   33 1
  64   33   61 1
  65   33   62 1
  66   33   63 1

#	End of record

