#	Name: ASD03091615
#	Creating user name:	WinNT
#	Creation time:	15. 06. 2019 20:31

#	Modifying user name:	WinNT
#	Modification time:	15. 06. 2019 20:31

#	Program:	/corina/corina34_cracker 3.40 0067  02.08.2006

@<TRIPOS>MOLECULE
ASD03091615
  40   42    0    0    0
SMALL
NO_CHARGES


@<TRIPOS>ATOM
   1 Cl1            0.0000     0.0000     0.0000 Cl      
   2 H2             0.0000     1.3700     0.0000 H       
   3 C3            13.6930    12.0168     6.5866 C.ar    
   4 C4            13.7121    10.6096     6.5789 C.ar    
   5 C5            14.9348     9.9487     6.5634 C.ar    
   6 C6            16.1072    10.6746     6.5558 C.ar    
   7 C7            16.0821    12.0637     6.5640 C.ar    
   8 C8            14.8920    12.7341     6.5790 C.ar    
   9 O9            12.4336    10.1848     6.5895 O.3     
  10 C10           11.5801    11.2301     6.6038 C.2     
  11 C11           12.2803    12.3939     6.6080 C.2     
  12 C12           10.1144    11.1250     6.6173 C.2     
  13 O13            9.4324    12.1323     6.6292 O.2     
  14 N14            9.5258     9.9125     6.6165 N.am    
  15 N15            6.8348     8.6537     8.4053 N.3     
  16 C16            7.5576     9.8887     8.0727 C.3     
  17 C17            8.0646     9.8077     6.6300 C.3     
  18 C18            7.6404     8.4608     6.0312 C.3     
  19 C19            6.1106     8.3617     6.0846 C.3     
  20 C20            5.6578     8.4822     7.5424 C.3     
  21 C21            7.7215     7.4848     8.3237 C.3     
  22 C22            8.2338     7.3357     6.8884 C.3     
  23 Br23          17.7674     9.7695     6.5347 Br      
  24 H24           14.9666     8.8692     6.5576 H       
  25 H25           17.0095    12.6171     6.5586 H       
  26 H26           14.8780    13.8140     6.5850 H       
  27 H27           11.8756    13.3952     6.6194 H       
  28 H28           10.0696     9.1094     6.6070 H       
  29 H29            6.8865    10.7416     8.1750 H       
  30 H30            8.4037    10.0083     8.7494 H       
  31 H31            7.6328    10.6197     6.0449 H       
  32 H32            7.9852     8.3838     5.0000 H       
  33 H33            5.6716     9.1688     5.4980 H       
  34 H34            5.7926     7.4002     5.6817 H       
  35 H35            5.1226     7.5782     7.8329 H       
  36 H36            5.0000     9.3448     7.6489 H       
  37 H37            8.5662     7.6213     8.9990 H       
  38 H38            7.1694     6.5890     8.6078 H       
  39 H39            7.9243     6.3700     6.4887 H       
  40 H40            9.3215     7.4049     6.8798 H       
@<TRIPOS>BOND
   1    1    2 1
   2    3    4 ar
   3    3    8 ar
   4    3   11 1
   5    4    5 ar
   6    4    9 1
   7    5    6 ar
   8    5   24 1
   9    6    7 ar
  10    6   23 1
  11    7    8 ar
  12    7   25 1
  13    8   26 1
  14    9   10 1
  15   10   11 2
  16   10   12 1
  17   11   27 1
  18   12   13 2
  19   12   14 am
  20   14   17 1
  21   14   28 1
  22   15   16 1
  23   15   20 1
  24   15   21 1
  25   16   17 1
  26   16   29 1
  27   16   30 1
  28   17   18 1
  29   17   31 1
  30   18   19 1
  31   18   22 1
  32   18   32 1
  33   19   20 1
  34   19   33 1
  35   19   34 1
  36   20   35 1
  37   20   36 1
  38   21   22 1
  39   21   37 1
  40   21   38 1
  41   22   39 1
  42   22   40 1

#	End of record

