#	Name: ASD03330845
#	Creating user name:	WinNT
#	Creation time:	15. 06. 2019 20:38

#	Modifying user name:	WinNT
#	Modification time:	15. 06. 2019 20:38

#	Program:	/corina/corina34_cracker 3.40 0067  02.08.2006

@<TRIPOS>MOLECULE
ASD03330845
  61   63    0    0    0
SMALL
NO_CHARGES


@<TRIPOS>ATOM
   1 C1            -0.0638     1.9720     1.7606 C.2     
   2 N2            -0.1480     0.6771     2.1658 N.pl3   
   3 C3             1.2160     2.1782     1.3428 C.2     
   4 N4             1.8871     1.0138     1.4801 N.2     
   5 C5             1.0748     0.1058     1.9679 C.2     
   6 C6             1.4268    -1.3020     2.2560 C.ar    
   7 C7             2.1157    -2.0601     1.3056 C.ar    
   8 C8             1.7696     3.4448     0.8320 C.2     
   9 O9             1.0615     4.4306     0.7547 O.2     
  10 C10            3.6108     4.7699    -0.0574 C.3     
  11 N11            3.0605     3.5107     0.4504 N.am    
  12 C12            2.4449    -3.3762     1.5733 C.ar    
  13 C13            2.0963    -3.9492     2.7790 C.ar    
  14 C14            1.4075    -3.2017     3.7383 C.ar    
  15 C15            1.0772    -1.8728     3.4769 C.ar    
  16 C16           -1.3424     0.0375     2.7243 C.3     
  17 C17           -2.5512     0.3781     1.8472 C.3     
  18 C18           -3.1742     1.6896     2.3143 C.3     
  19 N19           -2.1516     2.6089     2.8175 N.3     
  20 C20           -1.1924     2.9702     1.7632 C.3     
  21 C21           -2.7645     3.8078     3.4049 C.3     
  22 C22            3.3150     4.8890    -1.5538 C.3     
  23 C23            1.8076     4.7698    -1.7868 C.3     
  24 C24            3.8041     6.2460    -2.0639 C.3     
  25 C25            4.0375     3.7704    -2.3072 C.3     
  26 C26            5.1014     4.7919     0.1633 C.2     
  27 O27            5.6880     3.7683     0.4443 O.2     
  28 N28            5.7826     5.9491     0.0484 N.am    
  29 C29            7.2408     5.9579     0.1896 C.3     
  30 Cl30           2.5589    -1.3483    -0.2145 Cl      
  31 C31            1.0461    -3.7982     4.9890 C.1     
  32 N32            0.7594    -4.2714     5.9811 N.1     
  33 H33            3.1529     5.6059     0.4712 H       
  34 H34            3.6252     2.7245     0.5121 H       
  35 H35            2.9768    -3.9582     0.8353 H       
  36 H36            2.3560    -4.9777     2.9819 H       
  37 H37            0.5453    -1.2910     4.2151 H       
  38 H38           -1.2007    -1.0430     2.7457 H       
  39 H39           -1.5121     0.4038     3.7368 H       
  40 H40           -2.2301     0.4783     0.8104 H       
  41 H41           -3.2894    -0.4205     1.9215 H       
  42 H42           -3.6943     2.1564     1.4779 H       
  43 H43           -3.8908     1.4822     3.1090 H       
  44 H44           -0.7967     3.9672     1.9566 H       
  45 H45           -1.6929     2.9569     0.7950 H       
  46 H46           -3.4109     3.5168     4.2329 H       
  47 H47           -1.9828     4.4734     3.7707 H       
  48 H48           -3.3548     4.3226     2.6468 H       
  49 H49            1.2928     5.5667    -1.2501 H       
  50 H50            1.5968     4.8546    -2.8528 H       
  51 H51            1.4591     3.8030    -1.4234 H       
  52 H52            4.8456     6.3886    -1.7757 H       
  53 H53            3.7202     6.2776    -3.1502 H       
  54 H54            3.1950     7.0386    -1.6293 H       
  55 H55            3.6891     2.8036    -1.9437 H       
  56 H56            3.8268     3.8553    -3.3732 H       
  57 H57            5.1115     3.8553    -2.1412 H       
  58 H58            5.3075     6.7762    -0.1278 H       
  59 H59            7.6117     6.9754     0.0663 H       
  60 H60            7.5122     5.5897     1.1790 H       
  61 H61            7.6834     5.3151    -0.5713 H       
@<TRIPOS>BOND
   1    1    2 1
   2    1    3 2
   3    1   20 1
   4    2   16 1
   5    2    5 1
   6    3    4 1
   7    3    8 1
   8    4    5 2
   9    5    6 1
  10    6    7 ar
  11    6   15 ar
  12    7   12 ar
  13    7   30 1
  14    8    9 2
  15    8   11 am
  16   10   11 1
  17   10   22 1
  18   10   26 1
  19   10   33 1
  20   11   34 1
  21   12   13 ar
  22   12   35 1
  23   13   14 ar
  24   13   36 1
  25   14   15 ar
  26   14   31 1
  27   15   37 1
  28   16   17 1
  29   16   38 1
  30   16   39 1
  31   17   18 1
  32   17   40 1
  33   17   41 1
  34   18   19 1
  35   18   42 1
  36   18   43 1
  37   19   20 1
  38   19   21 1
  39   20   44 1
  40   20   45 1
  41   21   46 1
  42   21   47 1
  43   21   48 1
  44   22   23 1
  45   22   24 1
  46   22   25 1
  47   23   49 1
  48   23   50 1
  49   23   51 1
  50   24   52 1
  51   24   53 1
  52   24   54 1
  53   25   55 1
  54   25   56 1
  55   25   57 1
  56   26   27 2
  57   26   28 am
  58   28   29 1
  59   28   58 1
  60   29   59 1
  61   29   60 1
  62   29   61 1
  63   31   32 3

#	End of record

