#	Name: ASD03081309
#	Creating user name:	WinNT
#	Creation time:	15. 06. 2019 20:27

#	Modifying user name:	WinNT
#	Modification time:	15. 06. 2019 20:27

#	Program:	/corina/corina34_cracker 3.40 0067  02.08.2006

@<TRIPOS>MOLECULE
ASD03081309
  34   36    0    0    0
SMALL
NO_CHARGES


@<TRIPOS>ATOM
   1 O1            -0.0162     1.3445     0.0094 O.3     
   2 C2             0.0021    -0.0041     0.0020 C.2     
   3 N3             1.2613    -0.3804    -0.0120 N.2     
   4 N4             2.0181     0.6602    -0.0137 N.2     
   5 C5             1.2730     1.7417    -0.0007 C.2     
   6 C6             0.8552     4.2024     0.0165 C.ar    
   7 C7             1.7578     3.1373     0.0021 C.ar    
   8 C8             3.1302     3.4142    -0.0090 C.ar    
   9 C9             3.5320     4.7385    -0.0053 C.ar    
  10 C10            2.5745     5.7366     0.0092 C.ar    
  11 N11            1.2875     5.4461     0.0194 N.ar    
  12 C12           -1.1757    -0.8939     0.0085 C.ar    
  13 C13           -1.0071    -2.2846    -0.0006 C.ar    
  14 C14           -2.1167    -3.1133     0.0055 C.ar    
  15 C15           -3.3879    -2.5711     0.0200 C.ar    
  16 C16           -3.5622    -1.1937     0.0286 C.ar    
  17 C17           -2.4626    -0.3536     0.0294 C.ar    
  18 O18           -4.8167    -0.6688     0.0420 O.3     
  19 C19           -5.9066    -1.5930     0.0466 C.3     
  20 O20            0.2419    -2.8191    -0.0158 O.3     
  21 C21            0.3374    -4.2448    -0.0243 C.3     
  22 H22           -0.2065     4.0045     0.0207 H       
  23 H23            3.8565     2.6150    -0.0199 H       
  24 H24            4.5822     4.9900    -0.0133 H       
  25 H25            2.8856     6.7708     0.0125 H       
  26 H26           -1.9884    -4.1856    -0.0015 H       
  27 H27           -4.2498    -3.2219     0.0244 H       
  28 H28           -2.5997     0.7175     0.0410 H       
  29 H29           -6.8483    -1.0442     0.0574 H       
  30 H30           -5.8590    -2.2153    -0.8471 H       
  31 H31           -5.8438    -2.2245     0.9328 H       
  32 H32            1.3870    -4.5386    -0.0363 H       
  33 H33           -0.1421    -4.6465     0.8683 H       
  34 H34           -0.1597    -4.6370    -0.9115 H       
@<TRIPOS>BOND
   1    1    2 1
   2    1    5 1
   3    2    3 2
   4    2   12 1
   5    3    4 1
   6    4    5 2
   7    5    7 1
   8    6    7 ar
   9    6   11 ar
  10    6   22 1
  11    7    8 ar
  12    8    9 ar
  13    8   23 1
  14    9   10 ar
  15    9   24 1
  16   10   11 ar
  17   10   25 1
  18   12   13 ar
  19   12   17 ar
  20   13   14 ar
  21   13   20 1
  22   14   15 ar
  23   14   26 1
  24   15   16 ar
  25   15   27 1
  26   16   17 ar
  27   16   18 1
  28   17   28 1
  29   18   19 1
  30   19   29 1
  31   19   30 1
  32   19   31 1
  33   20   21 1
  34   21   32 1
  35   21   33 1
  36   21   34 1

#	End of record

