#	Name: ASD01410124
#	Creating user name:	WinNT
#	Creation time:	15. 06. 2019 19:16

#	Modifying user name:	WinNT
#	Modification time:	15. 06. 2019 19:16

#	Program:	/corina/corina34_cracker 3.40 0067  02.08.2006

@<TRIPOS>MOLECULE
ASD01410124
  62   66    0    0    0
SMALL
NO_CHARGES


@<TRIPOS>ATOM
   1 C1             0.0050     1.4329     0.0027 C.ar    
   2 C2             0.0092     0.0624     0.3239 C.ar    
   3 C3            -1.1711    -0.5713     0.6947 C.ar    
   4 C4            -2.3397     0.1319     0.7488 C.ar    
   5 C5            -2.3628     1.4965     0.4320 C.ar    
   6 C6            -1.1903     2.1494     0.0640 C.ar    
   7 N7             1.2790     1.7738    -0.3166 N.2     
   8 C8             2.0534     0.7209    -0.2145 C.2     
   9 N9             1.3137    -0.3625     0.1789 N.pl3   
  10 C10           -3.6342     2.2452     0.4936 C.2     
  11 N11           -4.7701     1.6157     0.8542 N.am    
  12 C12           -6.0313     2.3585     0.9153 C.3     
  13 C13            3.5060     0.7053    -0.4839 C.2     
  14 C14            4.3417    -0.4670    -0.7760 C.2     
  15 C15            5.5878     0.0013    -0.9512 C.2     
  16 O16            5.5817     1.3338    -0.7935 O.3     
  17 C17            4.3476     1.7752    -0.5190 C.2     
  18 C18            1.8147    -1.7206     0.4040 C.3     
  19 C19            1.4174    -2.1848     1.8067 C.3     
  20 C20            1.9407    -3.6032     2.0418 C.3     
  21 C21            1.3365    -4.5486     1.0015 C.3     
  22 C22            1.7338    -4.0844    -0.4012 C.3     
  23 C23            1.2105    -2.6660    -0.6363 C.3     
  24 O24           -3.6562     3.4293     0.2191 O.2     
  25 C25           -7.2021     1.3920     0.7251 C.3     
  26 C26           -7.1505     0.8075    -0.6629 C.ar    
  27 C27           -6.1513     3.0351     2.2565 C.2     
  28 O28           -5.2734     2.9098     3.0771 O.2     
  29 O29           -7.2336     3.7770     2.5395 O.3     
  30 C30           -6.4488    -0.3613    -0.8940 C.ar    
  31 C31           -6.4000    -0.8991    -2.1655 C.ar    
  32 C32           -7.0558    -0.2656    -3.2110 C.ar    
  33 C33           -7.7592     0.9070    -2.9766 C.ar    
  34 C34           -7.8097     1.4378    -1.7021 C.ar    
  35 O35           -7.0090    -0.7925    -4.4629 O.3     
  36 H36           -1.1635    -1.6230     0.9404 H       
  37 H37           -3.2529    -0.3672     1.0374 H       
  38 H38           -1.2071     3.2013    -0.1800 H       
  39 H39           -4.7525     0.6710     1.0732 H       
  40 H40           -6.0489     3.1102     0.1262 H       
  41 H41            4.0194    -1.4960    -0.8374 H       
  42 H42            6.4560    -0.5984    -1.1817 H       
  43 H43            4.0683     2.8043    -0.3477 H       
  44 H44            2.9009    -1.7269     0.3132 H       
  45 H45            1.8479    -1.5113     2.5478 H       
  46 H46            0.3312    -2.1786     1.8975 H       
  47 H47            3.0269    -3.6095     1.9510 H       
  48 H48            1.6577    -3.9339     3.0411 H       
  49 H49            1.7093    -5.5591     1.1690 H       
  50 H50            0.2503    -4.5424     1.0923 H       
  51 H51            2.8200    -4.0907    -0.4920 H       
  52 H52            1.3034    -4.7580    -1.1423 H       
  53 H53            0.1243    -2.6598    -0.5455 H       
  54 H54            1.4935    -2.3353    -1.6356 H       
  55 H55           -7.1340     0.5898     1.4599 H       
  56 H56           -8.1415     1.9284     0.8588 H       
  57 H57           -7.2657     4.1914     3.4126 H       
  58 H58           -5.9381    -0.8539    -0.0798 H       
  59 H59           -5.8514    -1.8119    -2.3455 H       
  60 H60           -8.2706     1.4021    -3.7888 H       
  61 H61           -8.3571     2.3505    -1.5191 H       
  62 H62           -7.7229    -1.4159    -4.6542 H       
@<TRIPOS>BOND
   1    1    2 ar
   2    1    7 1
   3    1    6 ar
   4    2    3 ar
   5    2    9 1
   6    3    4 ar
   7    3   36 1
   8    4    5 ar
   9    4   37 1
  10    5    6 ar
  11    5   10 1
  12    6   38 1
  13    7    8 2
  14    8    9 1
  15    8   13 1
  16    9   18 1
  17   10   11 am
  18   10   24 2
  19   11   12 1
  20   11   39 1
  21   12   25 1
  22   12   27 1
  23   12   40 1
  24   13   14 1
  25   13   17 2
  26   14   15 2
  27   14   41 1
  28   15   16 1
  29   15   42 1
  30   16   17 1
  31   17   43 1
  32   18   19 1
  33   18   23 1
  34   18   44 1
  35   19   20 1
  36   19   45 1
  37   19   46 1
  38   20   21 1
  39   20   47 1
  40   20   48 1
  41   21   22 1
  42   21   49 1
  43   21   50 1
  44   22   23 1
  45   22   51 1
  46   22   52 1
  47   23   53 1
  48   23   54 1
  49   25   26 1
  50   25   55 1
  51   25   56 1
  52   26   30 ar
  53   26   34 ar
  54   27   28 2
  55   27   29 1
  56   29   57 1
  57   30   31 ar
  58   30   58 1
  59   31   32 ar
  60   31   59 1
  61   32   33 ar
  62   32   35 1
  63   33   34 ar
  64   33   60 1
  65   34   61 1
  66   35   62 1

#	End of record

