#	Name: ASD03430731
#	Creating user name:	WinNT
#	Creation time:	15. 06. 2019 20:41

#	Modifying user name:	WinNT
#	Modification time:	15. 06. 2019 20:41

#	Program:	/corina/corina34_cracker 3.40 0067  02.08.2006

@<TRIPOS>MOLECULE
ASD03430731
  57   63    0    0    0
SMALL
NO_CHARGES


@<TRIPOS>ATOM
   1 C1             3.9824    -1.2582    -3.1956 C.ar    
   2 C2             3.1491    -2.1177    -2.5369 C.ar    
   3 C3             3.5577    -3.4120    -2.2801 C.ar    
   4 C4             4.8218    -3.8386    -2.6821 C.ar    
   5 C5             5.6587    -2.9616    -3.3546 C.ar    
   6 C6             5.2588    -1.6423    -3.6297 C.ar    
   7 O7             5.0424    -5.1327    -2.3089 O.3     
   8 C8             2.8948    -4.5869    -1.6158 C.3     
   9 C9             3.7819    -5.7700    -2.0285 C.3     
  10 C10            1.4696    -4.5398     0.1976 C.ar    
  11 C11            2.8208    -4.4378    -0.1252 C.ar    
  12 C12            1.4747    -4.7728    -2.0680 C.2     
  13 N13            0.7104    -4.7356    -0.9585 N.am    
  14 O14            1.0909    -4.9260    -3.2083 O.2     
  15 C15            3.7627    -4.2398     0.8591 C.ar    
  16 C16            3.3718    -4.1418     2.1831 C.ar    
  17 C17            2.0334    -4.2428     2.5151 C.ar    
  18 C18            1.0855    -4.4400     1.5322 C.ar    
  19 C19           -0.7471    -4.8833    -0.9644 C.3     
  20 C20           -1.3635    -3.7529    -1.7476 C.ar    
  21 C21           -1.1163    -6.1972    -1.6035 C.ar    
  22 C22           -2.6282    -3.8949    -2.2872 C.ar    
  23 C23           -3.1935    -2.8581    -3.0057 C.ar    
  24 C24           -2.4943    -1.6791    -3.1842 C.ar    
  25 C25           -1.2299    -1.5367    -2.6439 C.ar    
  26 C26           -0.6663    -2.5720    -1.9217 C.ar    
  27 C27           -1.5062    -7.2638    -0.8153 C.ar    
  28 C28           -1.8448    -8.4690    -1.4016 C.ar    
  29 C29           -1.7940    -8.6074    -2.7760 C.ar    
  30 C30           -1.4050    -7.5405    -3.5643 C.ar    
  31 C31           -1.0706    -6.3340    -2.9783 C.ar    
  32 S32            3.8488     0.4319    -3.7164 S.o2    
  33 C33            5.4490     0.6045    -4.4787 C.2     
  34 C34            6.0065    -0.5832    -4.3215 C.2     
  35 O35            2.8707     0.4916    -4.7454 O.2     
  36 O36            3.8352     1.2441    -2.5505 O.2     
  37 H37            2.1725    -1.7854    -2.2171 H       
  38 H38            6.6346    -3.2977    -3.6726 H       
  39 H39            3.3876    -6.2568    -2.9205 H       
  40 H40            3.8822    -6.4826    -1.2098 H       
  41 H41            4.8077    -4.1611     0.5979 H       
  42 H42            4.1106    -3.9864     2.9554 H       
  43 H43            1.7286    -4.1673     3.5485 H       
  44 H44            0.0419    -4.5172     1.7989 H       
  45 H45           -1.1188    -4.8604     0.0601 H       
  46 H46           -3.1745    -4.8160    -2.1477 H       
  47 H47           -4.1814    -2.9693    -3.4278 H       
  48 H48           -2.9357    -0.8693    -3.7462 H       
  49 H49           -0.6834    -0.6157    -2.7837 H       
  50 H50            0.3215    -2.4608    -1.4996 H       
  51 H51           -1.5459    -7.1556     0.2585 H       
  52 H52           -2.1487    -9.3025    -0.7857 H       
  53 H53           -2.0579    -9.5493    -3.2340 H       
  54 H54           -1.3650    -7.6488    -4.6381 H       
  55 H55           -0.7667    -5.5005    -3.5941 H       
  56 H56            5.8654     1.4762    -4.9615 H       
  57 H57            7.0018    -0.7728    -4.6955 H       
@<TRIPOS>BOND
   1    1    2 ar
   2    1    6 ar
   3    1   32 1
   4    2    3 ar
   5    2   37 1
   6    3    4 ar
   7    3    8 1
   8    4    5 ar
   9    4    7 1
  10    5    6 ar
  11    5   38 1
  12    6   34 1
  13    7    9 1
  14    8    9 1
  15    8   11 1
  16    8   12 1
  17    9   39 1
  18    9   40 1
  19   10   11 ar
  20   10   13 1
  21   10   18 ar
  22   11   15 ar
  23   12   13 am
  24   12   14 2
  25   13   19 1
  26   15   16 ar
  27   15   41 1
  28   16   17 ar
  29   16   42 1
  30   17   18 ar
  31   17   43 1
  32   18   44 1
  33   19   20 1
  34   19   21 1
  35   19   45 1
  36   20   22 ar
  37   20   26 ar
  38   21   27 ar
  39   21   31 ar
  40   22   23 ar
  41   22   46 1
  42   23   24 ar
  43   23   47 1
  44   24   25 ar
  45   24   48 1
  46   25   26 ar
  47   25   49 1
  48   26   50 1
  49   27   28 ar
  50   27   51 1
  51   28   29 ar
  52   28   52 1
  53   29   30 ar
  54   29   53 1
  55   30   31 ar
  56   30   54 1
  57   31   55 1
  58   32   33 1
  59   32   35 2
  60   32   36 2
  61   33   34 2
  62   33   56 1
  63   34   57 1

#	End of record

