#	Name: ASD01810742
#	Creating user name:	WinNT
#	Creation time:	15. 06. 2019 19:25

#	Modifying user name:	WinNT
#	Modification time:	15. 06. 2019 19:25

#	Program:	/corina/corina34_cracker 3.40 0067  02.08.2006

@<TRIPOS>MOLECULE
ASD01810742
  41   43    0    0    0
SMALL
NO_CHARGES


@<TRIPOS>ATOM
   1 C1             0.0021    -0.0041     0.0020 C.1     
   2 C2            -0.0179     1.4678     0.0101 C.3     
   3 C3             1.3959     1.9894    -0.0006 C.2     
   4 N4             0.0175    -1.1399    -0.0042 N.1     
   5 C5            -0.7468     1.9670    -1.2108 C.ar    
   6 C6            -0.6378     1.2746    -2.4022 C.ar    
   7 C7            -1.3127     1.7420    -3.5192 C.ar    
   8 C8            -2.0754     2.8936    -3.3957 C.ar    
   9 C9            -2.1369     3.5324    -2.1720 C.ar    
  10 N10           -1.4854     3.0561    -1.1288 N.ar    
  11 N11            3.1423     4.0510     2.3343 N.am    
  12 N12            1.8839     3.9378     2.9232 N.2     
  13 C13            1.0835     3.2072     2.2072 C.2     
  14 C14            1.8365     2.7659     1.0118 C.2     
  15 C15            3.1812     3.3649     1.1741 C.2     
  16 O16            4.1275     3.2598     0.4155 O.2     
  17 C17            4.2127     4.7791     2.8689 C.ar    
  18 C18            4.0522     6.1244     3.1850 C.ar    
  19 C19            5.1115     6.8393     3.7125 C.ar    
  20 C20            6.3287     6.2178     3.9255 C.ar    
  21 C21            6.4904     4.8811     3.6121 C.ar    
  22 C22            5.4346     4.1588     3.0900 C.ar    
  23 F23            2.8633     6.7313     2.9765 F       
  24 O24           -0.2066     2.9035     2.5016 O.3     
  25 C25           -0.7382     3.4382     3.7155 C.3     
  26 C26           -2.1929     2.9919     3.8754 C.3     
  27 H27           -0.5281     1.8193     0.9069 H       
  28 H28            2.0566     1.7419    -0.8183 H       
  29 H29           -0.0342     0.3810    -2.4621 H       
  30 H30           -1.2457     1.2219    -4.4634 H       
  31 H31           -2.6142     3.2864    -4.2453 H       
  32 H32           -2.7287     4.4297    -2.0675 H       
  33 H33            4.9886     7.8838     3.9581 H       
  34 H34            7.1550     6.7783     4.3374 H       
  35 H35            7.4425     4.3995     3.7795 H       
  36 H36            5.5612     3.1135     2.8498 H       
  37 H37           -0.1519     3.0754     4.5597 H       
  38 H38           -0.6936     4.5268     3.6832 H       
  39 H39           -2.5983     3.3998     4.8013 H       
  40 H40           -2.7791     3.3547     3.0312 H       
  41 H41           -2.2375     1.9033     3.9077 H       
@<TRIPOS>BOND
   1    1    2 1
   2    1    4 3
   3    2    3 1
   4    2    5 1
   5    2   27 1
   6    3   14 2
   7    3   28 1
   8    5    6 ar
   9    5   10 ar
  10    6    7 ar
  11    6   29 1
  12    7    8 ar
  13    7   30 1
  14    8    9 ar
  15    8   31 1
  16    9   10 ar
  17    9   32 1
  18   11   12 1
  19   11   15 am
  20   11   17 1
  21   12   13 2
  22   13   14 1
  23   13   24 1
  24   14   15 1
  25   15   16 2
  26   17   18 ar
  27   17   22 ar
  28   18   19 ar
  29   18   23 1
  30   19   20 ar
  31   19   33 1
  32   20   21 ar
  33   20   34 1
  34   21   22 ar
  35   21   35 1
  36   22   36 1
  37   24   25 1
  38   25   26 1
  39   25   37 1
  40   25   38 1
  41   26   39 1
  42   26   40 1
  43   26   41 1

#	End of record

