#	Name: ASD03320093
#	Creating user name:	WinNT
#	Creation time:	15. 06. 2019 20:36

#	Modifying user name:	WinNT
#	Modification time:	15. 06. 2019 20:36

#	Program:	/corina/corina34_cracker 3.40 0067  02.08.2006

@<TRIPOS>MOLECULE
ASD03320093
  63   67    0    0    0
SMALL
NO_CHARGES


@<TRIPOS>ATOM
   1 C1             0.0949     1.9943     0.1864 C.2     
   2 C2             0.0876     0.5196     0.2333 C.ar    
   3 C3             1.0038    -0.1691     1.0394 C.ar    
   4 C4             0.9565    -1.5603     1.0498 C.ar    
   5 C5            -0.0022    -2.2152     0.2566 C.ar    
   6 N6            -0.8491    -1.5233    -0.4905 N.ar    
   7 C7            -0.8363    -0.2070    -0.5206 C.ar    
   8 O8             0.8995     2.6197     0.8499 O.2     
   9 N9            -0.7864     2.6481    -0.5961 N.am    
  10 N10           -0.0611    -3.5966     0.2562 N.3     
  11 C11           -1.4230    -4.0675     0.5682 C.3     
  12 C12           -1.8749    -4.9671    -0.6013 C.3     
  13 C13           -0.5323    -5.4134    -1.2378 C.3     
  14 C14            0.3364    -4.1435    -1.0586 C.3     
  15 O15           -2.6046    -6.0964    -0.1173 O.3     
  16 C16           -0.8558     4.0462    -0.5558 C.ar    
  17 C17           -1.3779     4.7471    -1.6349 C.ar    
  18 C18           -1.4465     6.1257    -1.5943 C.ar    
  19 C19           -0.9935     6.8104    -0.4761 C.ar    
  20 C20           -0.4714     6.1109     0.6021 C.ar    
  21 C21           -0.4079     4.7320     0.5655 C.ar    
  22 O22           -1.0609     8.1679    -0.4370 O.3     
  23 C23           -0.5767     8.8077     0.7455 C.3     
  24 F24           -1.3107     8.3629     1.8503 F       
  25 F25            0.7744     8.4931     0.9260 F       
  26 Cl26          -0.7612    10.5937     0.5809 Cl      
  27 C27            1.9003    -2.3375     1.8820 C.2     
  28 C28            1.5946    -3.4224     2.6550 C.2     
  29 C29            2.7697    -3.8529     3.2714 C.2     
  30 N30            3.7492    -3.0705     2.8953 N.2     
  31 N31            3.2372    -2.1082     2.0155 N.pl3   
  32 C32            4.0002    -1.0415     1.3626 C.3     
  33 O33            4.7697    -0.3388     2.3405 O.3     
  34 C34            4.9391    -1.6511     0.3183 C.3     
  35 C35            5.7760    -0.5365    -0.3171 C.3     
  36 C36            6.5368     0.2071     0.7850 C.3     
  37 C37            5.5362     0.7449     1.8113 C.3     
  38 H38            1.7278     0.3653     1.6365 H       
  39 H39           -1.5480     0.3181    -1.1404 H       
  40 H40           -1.3727     2.1502    -1.1871 H       
  41 H41           -1.4138    -4.6409     1.4951 H       
  42 H42           -2.0971    -3.2161     0.6630 H       
  43 H43           -2.4705    -4.3996    -1.3163 H       
  44 H44           -0.1054    -6.2580    -0.6970 H       
  45 H45           -0.6611    -5.6526    -2.2934 H       
  46 H46            0.1238    -3.4236    -1.8490 H       
  47 H47            1.3946    -4.4047    -1.0567 H       
  48 H48           -2.9115    -6.6939    -0.8130 H       
  49 H49           -1.7299     4.2143    -2.5058 H       
  50 H50           -1.8525     6.6710    -2.4335 H       
  51 H51           -0.1183     6.6447     1.4721 H       
  52 H52           -0.0059     4.1872     1.4069 H       
  53 H53            0.6170    -3.8671     2.7687 H       
  54 H54            2.8565    -4.6914     3.9465 H       
  55 H55            3.3136    -0.3498     0.8746 H       
  56 H56            5.5991    -2.3731     0.7991 H       
  57 H57            4.3517    -2.1500    -0.4525 H       
  58 H58            6.4859    -0.9700    -1.0215 H       
  59 H59            5.1198     0.1591    -0.8402 H       
  60 H60            7.2290    -0.4774     1.2752 H       
  61 H61            7.0919     1.0371     0.3480 H       
  62 H62            4.8698     1.4601     1.3291 H       
  63 H63            6.0750     1.2382     2.6203 H       
@<TRIPOS>BOND
   1    1    2 1
   2    1    8 2
   3    1    9 am
   4    2    3 ar
   5    2    7 ar
   6    3    4 ar
   7    3   38 1
   8    4    5 ar
   9    4   27 1
  10    5    6 ar
  11    5   10 1
  12    6    7 ar
  13    7   39 1
  14    9   16 1
  15    9   40 1
  16   10   11 1
  17   10   14 1
  18   11   12 1
  19   11   41 1
  20   11   42 1
  21   12   13 1
  22   12   15 1
  23   12   43 1
  24   13   14 1
  25   13   44 1
  26   13   45 1
  27   14   46 1
  28   14   47 1
  29   15   48 1
  30   16   17 ar
  31   16   21 ar
  32   17   18 ar
  33   17   49 1
  34   18   19 ar
  35   18   50 1
  36   19   20 ar
  37   19   22 1
  38   20   21 ar
  39   20   51 1
  40   21   52 1
  41   22   23 1
  42   23   24 1
  43   23   25 1
  44   23   26 1
  45   27   28 2
  46   27   31 1
  47   28   29 1
  48   28   53 1
  49   29   30 2
  50   29   54 1
  51   30   31 1
  52   31   32 1
  53   32   33 1
  54   32   34 1
  55   32   55 1
  56   33   37 1
  57   34   35 1
  58   34   56 1
  59   34   57 1
  60   35   36 1
  61   35   58 1
  62   35   59 1
  63   36   37 1
  64   36   60 1
  65   36   61 1
  66   37   62 1
  67   37   63 1

#	End of record

