#	Name: ASD02508223
#	Creating user name:	WinNT
#	Creation time:	15. 06. 2019 20:24

#	Modifying user name:	WinNT
#	Modification time:	15. 06. 2019 20:24

#	Program:	/corina/corina34_cracker 3.40 0067  02.08.2006

@<TRIPOS>MOLECULE
ASD02508223
  59   63    0    0    0
SMALL
NO_CHARGES


@<TRIPOS>ATOM
   1 C1            -0.0168     1.3904     0.0097 C.ar    
   2 C2             0.0021    -0.0041     0.0020 C.ar    
   3 C3            -1.1922    -0.7077     0.0096 C.ar    
   4 C4            -2.3933    -0.0260     0.0248 C.ar    
   5 C5            -2.4110     1.3580     0.0319 C.ar    
   6 C6            -1.2261     2.0677     0.0299 C.ar    
   7 S7            -3.9102    -0.9224     0.0344 S.o2    
   8 N8            -4.6586    -0.6040     1.4770 N.am    
   9 C9            -5.5849     0.5297     1.6048 C.3     
  10 N10            1.3140     1.8071    -0.0008 N.am    
  11 C11            2.0846     0.7014    -0.0141 C.2     
  12 O12            1.3018    -0.3890    -0.0125 O.3     
  13 O13           -4.7245    -0.3441    -0.9763 O.2     
  14 O14           -3.5621    -2.2999     0.0585 O.2     
  15 C15            1.7879     3.1933     0.0021 C.3     
  16 O16            3.3005     0.6929    -0.0257 O.2     
  17 C17           -6.9290     0.0079     2.1276 C.3     
  18 N18           -6.6791    -0.8386     3.3028 N.am    
  19 C19           -5.7527    -1.9723     3.1750 C.3     
  20 C20           -4.4130    -1.4538     2.6506 C.3     
  21 C21           -7.2882    -0.5794     4.4768 C.2     
  22 O22           -7.0505    -1.3626     5.5458 O.3     
  23 C23           -7.7411    -1.0244     6.7774 C.3     
  24 C24           -6.2647    -1.7428     8.6660 C.ar    
  25 C25           -7.3542    -2.0036     7.8556 C.ar    
  26 C26           -3.7268     2.0925     0.0474 C.3     
  27 O27           -8.0518     0.3611     4.5705 O.2     
  28 C28           -5.9077    -2.6384     9.6550 C.ar    
  29 C29           -6.6439    -3.8015     9.8349 C.ar    
  30 C30           -7.7373    -4.0607     9.0197 C.ar    
  31 C31           -8.0898    -3.1611     8.0327 C.ar    
  32 N32           -6.2836    -4.7131    10.8381 N.pl3   
  33 N33           -5.2138    -4.6067    11.7443 N.2     
  34 N34           -5.2515    -5.6608    12.4860 N.2     
  35 N35           -6.2322    -6.4133    12.1378 N.2     
  36 C36           -6.8934    -5.8787    11.1446 C.2     
  37 H37           -1.1834    -1.7877     0.0034 H       
  38 H38           -1.2417     3.1476     0.0359 H       
  39 H39           -5.1774     1.2579     2.3061 H       
  40 H40           -5.7279     0.9969     0.6304 H       
  41 H41            1.9152     3.5316     1.0305 H       
  42 H42            2.7426     3.2521    -0.5205 H       
  43 H43            1.0584     3.8277    -0.5014 H       
  44 H44           -7.5628     0.8484     2.4103 H       
  45 H45           -7.4203    -0.5793     1.3517 H       
  46 H46           -5.6097    -2.4395     4.1493 H       
  47 H47           -6.1603    -2.7004     2.4736 H       
  48 H48           -3.7802    -2.2952     2.3684 H       
  49 H49           -3.9201    -0.8657     3.4247 H       
  50 H50           -7.4626    -0.0165     7.0851 H       
  51 H51           -8.8179    -1.0700     6.6145 H       
  52 H52           -5.6896    -0.8399     8.5227 H       
  53 H53           -4.0348     2.2644     1.0788 H       
  54 H54           -3.6149     3.0493    -0.4626 H       
  55 H55           -4.4825     1.4951    -0.4627 H       
  56 H56           -5.0564    -2.4343    10.2875 H       
  57 H57           -8.3119    -4.9647     9.1574 H       
  58 H58           -8.9405    -3.3620     7.3984 H       
  59 H59           -7.7615    -6.2952    10.6555 H       
@<TRIPOS>BOND
   1    1    2 ar
   2    1   10 1
   3    1    6 ar
   4    2    3 ar
   5    2   12 1
   6    3    4 ar
   7    3   37 1
   8    4    5 ar
   9    4    7 1
  10    5    6 ar
  11    5   26 1
  12    6   38 1
  13    7    8 am
  14    7   13 2
  15    7   14 2
  16    8    9 1
  17    8   20 1
  18    9   17 1
  19    9   39 1
  20    9   40 1
  21   10   11 am
  22   10   15 1
  23   11   12 1
  24   11   16 2
  25   15   41 1
  26   15   42 1
  27   15   43 1
  28   17   18 1
  29   17   44 1
  30   17   45 1
  31   18   19 1
  32   18   21 am
  33   19   20 1
  34   19   46 1
  35   19   47 1
  36   20   48 1
  37   20   49 1
  38   21   22 1
  39   21   27 2
  40   22   23 1
  41   23   25 1
  42   23   50 1
  43   23   51 1
  44   24   25 ar
  45   24   28 ar
  46   24   52 1
  47   25   31 ar
  48   26   53 1
  49   26   54 1
  50   26   55 1
  51   28   29 ar
  52   28   56 1
  53   29   30 ar
  54   29   32 1
  55   30   31 ar
  56   30   57 1
  57   31   58 1
  58   32   33 1
  59   32   36 1
  60   33   34 2
  61   34   35 1
  62   35   36 2
  63   36   59 1

#	End of record

