#	Name: ASD01140424
#	Creating user name:	WinNT
#	Creation time:	15. 06. 2019 19:00

#	Modifying user name:	WinNT
#	Modification time:	15. 06. 2019 19:00

#	Program:	/corina/corina34_cracker 3.40 0067  02.08.2006

@<TRIPOS>MOLECULE
ASD01140424
  61   65    0    0    0
SMALL
NO_CHARGES


@<TRIPOS>ATOM
   1 C1             0.2049     1.4947    -0.2879 C.3     
   2 C2             3.8678     0.4880    -9.1396 C.ar    
   3 C3             3.9478     0.8267   -10.4761 C.ar    
   4 C4             4.0987     2.1506   -10.8444 C.ar    
   5 C5             4.1692     3.1319    -9.8752 C.ar    
   6 C6             4.0893     2.7943    -8.5344 C.ar    
   7 C7             3.9384     1.4707    -8.1661 C.ar    
   8 C8             4.1404     3.6667    -7.2985 C.3     
   9 C9             3.5688     2.7918    -6.1626 C.3     
  10 C10            3.8779     1.3629    -6.6575 C.3     
  11 N11            4.2566     3.0652    -4.8983 N.pl3   
  12 C12            3.6106     2.8163    -3.6826 C.ar    
  13 C13            2.3142     2.3088    -3.6639 C.ar    
  14 N14            1.6863     2.0668    -2.5331 N.ar    
  15 C15            2.2533     2.2927    -1.3544 C.ar    
  16 C16            3.5615     2.8050    -1.2967 C.ar    
  17 C17            4.2566     3.0670    -2.4785 C.ar    
  18 N18            1.5662     2.0275    -0.1909 N.pl3   
  19 C19            2.0870     2.2353     1.0257 C.2     
  20 C20            3.3597     2.7347     1.2072 C.2     
  21 C21            4.1734     3.0489     0.0215 C.2     
  22 C22            4.1792     0.5240     2.7907 C.3     
  23 N23            4.3250     1.8999     3.2895 N.am    
  24 C24            3.8945     2.9490     2.5611 C.2     
  25 C25            5.5389    -0.1759     2.8885 C.3     
  26 N26            6.0461    -0.0638     4.2625 N.3     
  27 C27            6.2818     1.3386     4.6308 C.3     
  28 C28            4.9525     2.1005     4.6045 C.3     
  29 O29            5.3038     3.4918     0.1254 O.2     
  30 O30            3.9482     4.0730     3.0230 O.2     
  31 C31            0.2565    -0.0341    -0.3175 C.3     
  32 C32            7.2631    -0.8669     4.4417 C.3     
  33 H33           -0.3756     1.8221     0.5746 H       
  34 H34           -0.2640     1.8603    -1.2014 H       
  35 H35            3.7453    -0.5459    -8.8527 H       
  36 H36            3.8929     0.0580   -11.2327 H       
  37 H37            4.1618     2.4172   -11.8891 H       
  38 H38            4.2874     4.1659   -10.1638 H       
  39 H39            5.1697     3.9489    -7.0770 H       
  40 H40            3.5252     4.5557    -7.4373 H       
  41 H41            2.4941     2.9426    -6.0608 H       
  42 H42            3.0835     0.6790    -6.3587 H       
  43 H43            4.8366     1.0254    -6.2637 H       
  44 H44            5.1598     3.4189    -4.9041 H       
  45 H45            1.8121     2.1095    -4.5991 H       
  46 H46            5.2621     3.4606    -2.4574 H       
  47 H47            1.4891     2.0041     1.8948 H       
  48 H48            3.4480    -0.0100     3.3977 H       
  49 H49            3.8516     0.5441     1.7513 H       
  50 H50            5.4260    -1.2281     2.6271 H       
  51 H51            6.2413     0.2965     2.2018 H       
  52 H52            6.7078     1.3848     5.6331 H       
  53 H53            6.9739     1.7899     3.9199 H       
  54 H54            5.1363     3.1630     4.7642 H       
  55 H55            4.2958     1.7181     5.3858 H       
  56 H56           -0.7563    -0.4305    -0.3897 H       
  57 H57            0.8371    -0.3614    -1.1800 H       
  58 H58            0.7255    -0.3996     0.5960 H       
  59 H59            8.0338    -0.5167     3.7550 H       
  60 H60            7.6173    -0.7658     5.4675 H       
  61 H61            7.0411    -1.9139     4.2354 H       
@<TRIPOS>BOND
   1    1   31 1
   2    1   18 1
   3    1   33 1
   4    1   34 1
   5    2    3 ar
   6    2    7 ar
   7    2   35 1
   8    3    4 ar
   9    3   36 1
  10    4    5 ar
  11    4   37 1
  12    5    6 ar
  13    5   38 1
  14    6    7 ar
  15    6    8 1
  16    7   10 1
  17    8    9 1
  18    8   39 1
  19    8   40 1
  20    9   10 1
  21    9   11 1
  22    9   41 1
  23   10   42 1
  24   10   43 1
  25   11   12 1
  26   11   44 1
  27   12   13 ar
  28   12   17 ar
  29   13   14 ar
  30   13   45 1
  31   14   15 ar
  32   15   16 ar
  33   15   18 1
  34   16   17 ar
  35   16   21 1
  36   17   46 1
  37   18   19 1
  38   19   20 2
  39   19   47 1
  40   20   21 1
  41   20   24 1
  42   21   29 2
  43   22   23 1
  44   22   25 1
  45   22   48 1
  46   22   49 1
  47   23   24 am
  48   23   28 1
  49   24   30 2
  50   25   26 1
  51   25   50 1
  52   25   51 1
  53   26   27 1
  54   26   32 1
  55   27   28 1
  56   27   52 1
  57   27   53 1
  58   28   54 1
  59   28   55 1
  60   31   56 1
  61   31   57 1
  62   31   58 1
  63   32   59 1
  64   32   60 1
  65   32   61 1

#	End of record

