#	Name: ASD01917237
#	Creating user name:	WinNT
#	Creation time:	15. 06. 2019 20:08

#	Modifying user name:	WinNT
#	Modification time:	15. 06. 2019 20:08

#	Program:	/corina/corina34_cracker 3.40 0067  02.08.2006

@<TRIPOS>MOLECULE
ASD01917237
  45   48    0    0    0
SMALL
NO_CHARGES


@<TRIPOS>ATOM
   1 C1            -0.1654     0.6815     0.5055 C.ar    
   2 C2            -0.2967    -0.6838     0.2987 C.ar    
   3 C3            -1.5464    -1.2313     0.0807 C.ar    
   4 C4            -2.6654    -0.4196     0.0685 C.ar    
   5 C5            -2.5371     0.9419     0.2739 C.ar    
   6 C6            -1.2907     1.4932     0.4985 C.ar    
   7 C7            -3.7589     1.8239     0.2590 C.3     
   8 O8            -4.2955     1.9168     1.5802 O.3     
   9 C9            -5.4086     2.6814     1.7422 C.2     
  10 N10           -6.0319     3.3408     0.7875 N.2     
  11 N11           -7.1165     4.0066     1.3436 N.pl3   
  12 C12           -7.1418     3.7141     2.6889 C.2     
  13 C13           -6.0850     2.8927     2.9516 C.2     
  14 C14           -8.1073     4.8904     0.7268 C.3     
  15 C15           -9.4228     4.7891     1.4986 C.3     
  16 N16           -9.2334     4.8689     2.9427 N.am    
  17 C17           -8.1990     4.2509     3.5617 C.2     
  18 O18           -8.1467     4.1449     4.7724 O.2     
  19 C19          -10.1445     5.6040     3.7093 C.ar    
  20 C20          -11.4567     5.1677     3.8375 C.ar    
  21 C21          -12.3543     5.8947     4.5945 C.ar    
  22 C22          -11.9467     7.0581     5.2254 C.ar    
  23 C23          -10.6389     7.4952     5.0985 C.ar    
  24 C24           -9.7364     6.7679     4.3475 C.ar    
  25 F25          -12.8264     7.7678     5.9654 F       
  26 O26            1.0627     1.2225     0.7201 O.3     
  27 C27            2.1755     0.3260     0.7196 C.3     
  28 H28            0.5772    -1.3183     0.3078 H       
  29 H29           -1.6491    -2.2942    -0.0807 H       
  30 H30           -3.6413    -0.8495    -0.1021 H       
  31 H31           -1.1911     2.5566     0.6593 H       
  32 H32           -3.4848     2.8186    -0.0926 H       
  33 H33           -4.5076     1.3964    -0.4080 H       
  34 H34           -5.8156     2.4852     3.9148 H       
  35 H35           -7.7464     5.9185     0.7560 H       
  36 H36           -8.2687     4.5899    -0.3085 H       
  37 H37          -10.0791     5.6006     1.1841 H       
  38 H38           -9.9002     3.8392     1.2579 H       
  39 H39          -11.7750     4.2606     3.3453 H       
  40 H40          -13.3749     5.5559     4.6942 H       
  41 H41          -10.3232     8.4030     5.5911 H       
  42 H42           -8.7165     7.1092     4.2488 H       
  43 H43            3.0929     0.8857     0.9018 H       
  44 H44            2.0424    -0.4188     1.5042 H       
  45 H45            2.2400    -0.1725    -0.2475 H       
@<TRIPOS>BOND
   1    1    2 ar
   2    1   26 1
   3    1    6 ar
   4    2    3 ar
   5    2   28 1
   6    3    4 ar
   7    3   29 1
   8    4    5 ar
   9    4   30 1
  10    5    6 ar
  11    5    7 1
  12    6   31 1
  13    7    8 1
  14    7   32 1
  15    7   33 1
  16    8    9 1
  17    9   10 2
  18    9   13 1
  19   10   11 1
  20   11   12 1
  21   11   14 1
  22   12   13 2
  23   12   17 1
  24   13   34 1
  25   14   15 1
  26   14   35 1
  27   14   36 1
  28   15   16 1
  29   15   37 1
  30   15   38 1
  31   16   17 am
  32   16   19 1
  33   17   18 2
  34   19   20 ar
  35   19   24 ar
  36   20   21 ar
  37   20   39 1
  38   21   22 ar
  39   21   40 1
  40   22   23 ar
  41   22   25 1
  42   23   24 ar
  43   23   41 1
  44   24   42 1
  45   26   27 1
  46   27   43 1
  47   27   44 1
  48   27   45 1

#	End of record

