#	Name: ASD01911084
#	Creating user name:	WinNT
#	Creation time:	15. 06. 2019 19:57

#	Modifying user name:	WinNT
#	Modification time:	15. 06. 2019 19:57

#	Program:	/corina/corina34_cracker 3.40 0067  02.08.2006

@<TRIPOS>MOLECULE
ASD01911084
  50   53    0    0    0
SMALL
NO_CHARGES


@<TRIPOS>ATOM
   1 C1             1.0469     1.9790     0.8354 C.3     
   2 C2             0.7022     0.5123     0.8641 C.2     
   3 N3             0.9194    -0.3219     1.8523 N.2     
   4 C4             0.4514    -1.5107     1.4321 C.2     
   5 N5            -0.0178    -1.3421     0.2321 N.2     
   6 O6             0.1114    -0.1857    -0.1106 O.3     
   7 C7             0.4685    -2.8014     2.2098 C.3     
   8 C8            -0.9649    -3.3034     2.3980 C.3     
   9 C9            -0.9509    -4.5969     3.2159 C.3     
  10 C10           -0.1593    -5.6672     2.4578 C.3     
  11 N11            1.1746    -5.1363     2.1456 N.am    
  12 C12            1.2762    -3.8513     1.4404 C.3     
  13 C13            2.2839    -5.8151     2.4993 C.2     
  14 O14            3.3796    -5.4002     2.1751 O.2     
  15 C15            2.1683    -7.0633     3.2809 C.ar    
  16 C16            1.2994    -8.0737     2.8633 C.ar    
  17 C17            1.1954    -9.2363     3.5964 C.ar    
  18 C18            1.9514    -9.4035     4.7466 C.ar    
  19 C19            2.8153    -8.4033     5.1660 C.ar    
  20 C20            2.9316    -7.2393     4.4370 C.ar    
  21 F21            1.8456   -10.5450     5.4615 F       
  22 C22            2.4590     2.1602     0.2749 C.3     
  23 C23            2.8037     3.6269     0.2463 C.ar    
  24 C24            3.4117     4.2155     1.3394 C.ar    
  25 C25            3.7279     5.5609     1.3131 C.ar    
  26 C26            3.4365     6.3177     0.1936 C.ar    
  27 C27            2.8294     5.7289    -0.8998 C.ar    
  28 C28            2.5171     4.3825    -0.8752 C.ar    
  29 H29            0.3342     2.5075     0.2023 H       
  30 H30            1.0031     2.3824     1.8471 H       
  31 H31            0.9258    -2.6326     3.1848 H       
  32 H32           -1.5483    -2.5476     2.9237 H       
  33 H33           -1.4134    -3.4950     1.4232 H       
  34 H34           -0.4801    -4.4117     4.1814 H       
  35 H35           -1.9736    -4.9413     3.3694 H       
  36 H36           -0.0620    -6.5578     3.0786 H       
  37 H37           -0.6782    -5.9188     1.5329 H       
  38 H38            0.8744    -3.9549     0.4325 H       
  39 H39            2.3208    -3.5439     1.3898 H       
  40 H40            0.7099    -7.9442     1.9677 H       
  41 H41            0.5235   -10.0182     3.2745 H       
  42 H42            3.4016    -8.5386     6.0629 H       
  43 H43            3.6051    -6.4610     4.7644 H       
  44 H44            3.1718     1.6317     0.9080 H       
  45 H45            2.5029     1.7568    -0.7367 H       
  46 H46            3.6394     3.6243     2.2140 H       
  47 H47            4.2023     6.0209     2.1674 H       
  48 H48            3.6829     7.3690     0.1734 H       
  49 H49            2.6014     6.3202    -1.7743 H       
  50 H50            2.0428     3.9225    -1.7295 H       
@<TRIPOS>BOND
   1    1    2 1
   2    1   22 1
   3    1   29 1
   4    1   30 1
   5    2    3 2
   6    2    6 1
   7    3    4 1
   8    4    5 2
   9    4    7 1
  10    5    6 1
  11    7    8 1
  12    7   12 1
  13    7   31 1
  14    8    9 1
  15    8   32 1
  16    8   33 1
  17    9   10 1
  18    9   34 1
  19    9   35 1
  20   10   11 1
  21   10   36 1
  22   10   37 1
  23   11   12 1
  24   11   13 am
  25   12   38 1
  26   12   39 1
  27   13   14 2
  28   13   15 1
  29   15   16 ar
  30   15   20 ar
  31   16   17 ar
  32   16   40 1
  33   17   18 ar
  34   17   41 1
  35   18   19 ar
  36   18   21 1
  37   19   20 ar
  38   19   42 1
  39   20   43 1
  40   22   23 1
  41   22   44 1
  42   22   45 1
  43   23   24 ar
  44   23   28 ar
  45   24   25 ar
  46   24   46 1
  47   25   26 ar
  48   25   47 1
  49   26   27 ar
  50   26   48 1
  51   27   28 ar
  52   27   49 1
  53   28   50 1

#	End of record

