#	Name: ASD02038347
#	Creating user name:	WinNT
#	Creation time:	15. 06. 2019 20:16

#	Modifying user name:	WinNT
#	Modification time:	15. 06. 2019 20:16

#	Program:	/corina/corina34_cracker 3.40 0067  02.08.2006

@<TRIPOS>MOLECULE
ASD02038347
  49   51    0    0    0
SMALL
NO_CHARGES


@<TRIPOS>ATOM
   1 C1             0.2866     1.6913     0.1566 C.3     
   2 C2             0.3289     0.1556     0.2783 C.3     
   3 N3             1.7394    -0.1787     0.0310 N.am    
   4 C4             2.4252     0.9488    -0.1983 C.2     
   5 N5             1.6778     2.0592    -0.1463 N.am    
   6 C6             2.3047    -1.5302     0.0349 C.3     
   7 C7             2.2259    -2.1200    -1.3746 C.3     
   8 C8             2.8163    -3.5315    -1.3706 C.3     
   9 O9             2.8497    -4.0377    -2.7065 O.3     
  10 C10            3.4113    -5.8426    -4.1507 C.ar    
  11 C11            3.3500    -5.2902    -2.8798 C.ar    
  12 O12            3.6183     0.9632    -0.4322 O.2     
  13 C13            2.1466     3.3628    -0.3481 C.ar    
  14 C14            1.2530     4.4250    -0.3871 C.ar    
  15 C15            3.5064     3.5965    -0.5039 C.ar    
  16 C16            3.9664     4.8836    -0.7025 C.ar    
  17 C17            3.0733     5.9398    -0.7461 C.ar    
  18 C18            1.7181     5.7101    -0.5859 C.ar    
  19 Cl19           3.6547     7.5564    -0.9952 Cl      
  20 C20            3.9193    -7.1145    -4.3273 C.ar    
  21 C21            4.3687    -7.8404    -3.2325 C.ar    
  22 C22            4.3075    -7.2868    -1.9608 C.ar    
  23 C23            3.7993    -6.0148    -1.7855 C.ar    
  24 N24            4.8839    -9.1315    -3.4110 N.am    
  25 O25            0.8603    -2.1761    -1.7919 O.3     
  26 C26            5.6030    -9.4237    -4.5128 C.2     
  27 N27            6.1755   -10.6370    -4.6417 N.am    
  28 O28            5.7352    -8.5928    -5.3906 O.2     
  29 H29           -0.3744     1.9926    -0.6560 H       
  30 H30           -0.0320     2.1409     1.0971 H       
  31 H31            0.0313    -0.1572     1.2791 H       
  32 H32           -0.3111    -0.3055    -0.4740 H       
  33 H33            3.3464    -1.4874     0.3531 H       
  34 H34            1.7399    -2.1583     0.7237 H       
  35 H35            2.7908    -1.4919    -2.0635 H       
  36 H36            3.8289    -3.5006    -0.9684 H       
  37 H37            2.1989    -4.1818    -0.7509 H       
  38 H38            3.0576    -5.2795    -5.0017 H       
  39 H39            0.1952     4.2462    -0.2624 H       
  40 H40            4.2038     2.7726    -0.4696 H       
  41 H41            5.0240     5.0660    -0.8234 H       
  42 H42            1.0231     6.5361    -0.6207 H       
  43 H43            3.9666    -7.5446    -5.3169 H       
  44 H44            4.6569    -7.8510    -1.1087 H       
  45 H45            3.7519    -5.5839    -0.7963 H       
  46 H46            4.7229    -9.8148    -2.7416 H       
  47 H47            0.2974    -2.7193    -1.2234 H       
  48 H48            6.0700   -11.2999    -3.9415 H       
  49 H49            6.6930   -10.8473    -5.4347 H       
@<TRIPOS>BOND
   1    1    2 1
   2    1    5 1
   3    1   29 1
   4    1   30 1
   5    2    3 1
   6    2   31 1
   7    2   32 1
   8    3    4 am
   9    3    6 1
  10    4    5 am
  11    4   12 2
  12    5   13 1
  13    6    7 1
  14    6   33 1
  15    6   34 1
  16    7    8 1
  17    7   25 1
  18    7   35 1
  19    8    9 1
  20    8   36 1
  21    8   37 1
  22    9   11 1
  23   10   11 ar
  24   10   20 ar
  25   10   38 1
  26   11   23 ar
  27   13   14 ar
  28   13   15 ar
  29   14   18 ar
  30   14   39 1
  31   15   16 ar
  32   15   40 1
  33   16   17 ar
  34   16   41 1
  35   17   18 ar
  36   17   19 1
  37   18   42 1
  38   20   21 ar
  39   20   43 1
  40   21   22 ar
  41   21   24 1
  42   22   23 ar
  43   22   44 1
  44   23   45 1
  45   24   26 am
  46   24   46 1
  47   25   47 1
  48   26   27 am
  49   26   28 2
  50   27   48 1
  51   27   49 1

#	End of record

