#	Name: ASD01882469
#	Creating user name:	WinNT
#	Creation time:	15. 06. 2019 19:44

#	Modifying user name:	WinNT
#	Modification time:	15. 06. 2019 19:44

#	Program:	/corina/corina34_cracker 3.40 0067  02.08.2006

@<TRIPOS>MOLECULE
ASD01882469
  61   66    0    0    0
SMALL
NO_CHARGES


@<TRIPOS>ATOM
   1 C1            -1.4081     0.8303    -2.4228 C.3     
   2 N2            -1.2013    -0.5595    -1.9714 N.3     
   3 C3             0.1199    -0.5203    -2.6278 C.3     
   4 C4            -0.4486     0.5353    -3.5769 C.3     
   5 C5            -1.1239    -0.0392    -4.8180 C.3     
   6 N6            -1.7877     1.0455    -5.5561 N.3     
   7 C7            -0.8254     2.0789    -5.9583 C.3     
   8 C8            -0.2224     2.7371    -4.7155 C.3     
   9 C9             0.5159     1.6755    -3.8916 C.3     
  10 C10           -2.4801     0.5472    -6.6639 C.ar    
  11 C11           -3.1773     1.4136    -7.4957 C.ar    
  12 C12           -3.8601     0.9192    -8.5898 C.ar    
  13 C13           -3.8499    -0.4393    -8.8575 C.ar    
  14 C14           -3.1555    -1.3050    -8.0296 C.ar    
  15 C15           -2.4669    -0.8144    -6.9374 C.ar    
  16 F16           -4.5189    -0.9208    -9.9280 F       
  17 C17           -1.0616    -0.6232    -0.5104 C.3     
  18 C18           -2.6122    -3.8158     0.7854 C.2     
  19 C19           -2.4645    -2.4817     0.3595 C.2     
  20 C20           -1.2425    -2.0467    -0.0501 C.2     
  21 C21           -0.1494    -2.9301    -0.0428 C.2     
  22 C22           -0.3061    -4.2061     0.3676 C.2     
  23 N23           -1.5255    -4.6557     0.7809 N.pl3   
  24 N24           -3.2548    -5.7197     1.4955 N.2     
  25 N25           -3.6386    -4.5195     1.2345 N.2     
  26 C26           -1.9795    -5.8543     1.2378 C.2     
  27 C27           -3.6464    -1.5469     0.3576 C.3     
  28 F28           -3.8257    -1.0244    -0.9278 F       
  29 F29           -4.7954    -2.2470     0.7408 F       
  30 F30           -3.4155    -0.5013     1.2580 F       
  31 C31           -1.1617    -7.1074     1.4166 C.3     
  32 C32           -0.5725    -7.1347     2.8284 C.3     
  33 C33            0.1976    -8.3883     3.2483 C.3     
  34 C34            0.9512    -7.0885     2.9591 C.3     
  35 H35           -2.4284     1.0346    -2.7473 H       
  36 H36           -1.0300     1.5754    -1.7229 H       
  37 H37            0.9142    -0.1430    -1.9837 H       
  38 H38            0.3862    -1.4532    -3.1247 H       
  39 H39           -0.3746    -0.5079    -5.4559 H       
  40 H40           -1.8637    -0.7817    -4.5189 H       
  41 H41           -0.0306     1.6236    -6.5491 H       
  42 H42           -1.3340     2.8341    -6.5577 H       
  43 H43            0.4783     3.5149    -5.0190 H       
  44 H44           -1.0179     3.1768    -4.1139 H       
  45 H45            0.8734     2.1183    -2.9620 H       
  46 H46            1.3606     1.2917    -4.4636 H       
  47 H47           -3.1858     2.4733    -7.2870 H       
  48 H48           -4.4027     1.5926    -9.2367 H       
  49 H49           -3.1492    -2.3643    -8.2401 H       
  50 H50           -1.9220    -1.4895    -6.2943 H       
  51 H51           -0.0701    -0.2722    -0.2246 H       
  52 H52           -1.8187     0.0081    -0.0452 H       
  53 H53            0.8214    -2.5859    -0.3678 H       
  54 H54            0.5407    -4.8765     0.3688 H       
  55 H55           -1.7980    -7.9803     1.2715 H       
  56 H56           -0.3535    -7.1213     0.6854 H       
  57 H57           -1.1592    -6.6249     3.5926 H       
  58 H58            0.1179    -8.7029     4.2889 H       
  59 H59            0.2846    -9.1935     2.5189 H       
  60 H60            1.5339    -7.0386     2.0393 H       
  61 H61            1.3672    -6.5480     3.8093 H       
@<TRIPOS>BOND
   1    1    2 1
   2    1    4 1
   3    1   35 1
   4    1   36 1
   5    2    3 1
   6    2   17 1
   7    3    4 1
   8    3   37 1
   9    3   38 1
  10    4    5 1
  11    4    9 1
  12    5    6 1
  13    5   39 1
  14    5   40 1
  15    6    7 1
  16    6   10 1
  17    7    8 1
  18    7   41 1
  19    7   42 1
  20    8    9 1
  21    8   43 1
  22    8   44 1
  23    9   45 1
  24    9   46 1
  25   10   11 ar
  26   10   15 ar
  27   11   12 ar
  28   11   47 1
  29   12   13 ar
  30   12   48 1
  31   13   14 ar
  32   13   16 1
  33   14   15 ar
  34   14   49 1
  35   15   50 1
  36   17   20 1
  37   17   51 1
  38   17   52 1
  39   18   19 1
  40   18   23 1
  41   18   25 2
  42   19   20 2
  43   19   27 1
  44   20   21 1
  45   21   22 2
  46   21   53 1
  47   22   23 1
  48   22   54 1
  49   23   26 1
  50   24   25 1
  51   24   26 2
  52   26   31 1
  53   27   28 1
  54   27   29 1
  55   27   30 1
  56   31   32 1
  57   31   55 1
  58   31   56 1
  59   32   33 1
  60   32   34 1
  61   32   57 1
  62   33   34 1
  63   33   58 1
  64   33   59 1
  65   34   60 1
  66   34   61 1

#	End of record

