#	Name: ASD01917901
#	Creating user name:	WinNT
#	Creation time:	15. 06. 2019 20:10

#	Modifying user name:	WinNT
#	Modification time:	15. 06. 2019 20:10

#	Program:	/corina/corina34_cracker 3.40 0067  02.08.2006

@<TRIPOS>MOLECULE
ASD01917901
  40   43    0    0    0
SMALL
NO_CHARGES


@<TRIPOS>ATOM
   1 C1             0.0007     1.2920    -0.0628 C.2     
   2 C2            -0.0059    -0.0541    -0.0533 C.2     
   3 C3            -1.2855    -0.8753    -0.0132 C.3     
   4 C4            -2.4323     0.0073     0.4852 C.3     
   5 N5            -2.3995     1.2903    -0.2330 N.am    
   6 C6            -1.2325     2.1651    -0.0235 C.3     
   7 C7            -3.4039     1.6536    -1.0549 C.2     
   8 O8            -4.3039     0.8724    -1.2976 O.2     
   9 S9             1.6680     1.8466    -0.1200 S.3     
  10 C10            2.2142     0.2269    -0.1217 C.2     
  11 N11            1.2116    -0.5785    -0.0840 N.2     
  12 C12            3.6600    -0.1962    -0.1621 C.3     
  13 O13            4.0759    -0.3419    -1.5214 O.3     
  14 C14            5.3631    -0.7217    -1.7355 C.ar    
  15 C15            5.8339    -0.8823    -3.0305 C.ar    
  16 C16            7.1427    -1.2685    -3.2454 C.ar    
  17 C17            7.9832    -1.4950    -2.1712 C.ar    
  18 C18            7.5163    -1.3361    -0.8795 C.ar    
  19 C19            6.2100    -0.9440    -0.6594 C.ar    
  20 C20           -3.4117     2.9971    -1.6595 C.2     
  21 N21           -2.5421     4.0039    -1.3887 N.2     
  22 C22           -2.8584     5.0391    -2.1118 C.2     
  23 N23           -3.9420     4.7333    -2.8720 N.pl3   
  24 C24           -4.2903     3.4542    -2.5976 C.2     
  25 H25           -1.5154    -1.2407    -1.0141 H       
  26 H26           -1.1553    -1.7200     0.6632 H       
  27 H27           -3.3835    -0.4910     0.2979 H       
  28 H28           -2.3171     0.1851     1.5544 H       
  29 H29           -1.3084     2.6581     0.9456 H       
  30 H30           -1.1819     2.9112    -0.8166 H       
  31 H31            4.2738     0.5605     0.3266 H       
  32 H32            3.7747    -1.1478     0.3570 H       
  33 H33            5.1777    -0.7059    -3.8699 H       
  34 H34            7.5097    -1.3940    -4.2534 H       
  35 H35            9.0061    -1.7969    -2.3413 H       
  36 H36            8.1745    -1.5143    -0.0421 H       
  37 H37            5.8457    -0.8200     0.3497 H       
  38 H38           -2.3430     5.9882    -2.1075 H       
  39 H39           -4.3843     5.3242    -3.5013 H       
  40 H40           -5.1087     2.9021    -3.0357 H       
@<TRIPOS>BOND
   1    1    2 2
   2    1    9 1
   3    1    6 1
   4    2    3 1
   5    2   11 1
   6    3    4 1
   7    3   25 1
   8    3   26 1
   9    4    5 1
  10    4   27 1
  11    4   28 1
  12    5    6 1
  13    5    7 am
  14    6   29 1
  15    6   30 1
  16    7    8 2
  17    7   20 1
  18    9   10 1
  19   10   11 2
  20   10   12 1
  21   12   13 1
  22   12   31 1
  23   12   32 1
  24   13   14 1
  25   14   15 ar
  26   14   19 ar
  27   15   16 ar
  28   15   33 1
  29   16   17 ar
  30   16   34 1
  31   17   18 ar
  32   17   35 1
  33   18   19 ar
  34   18   36 1
  35   19   37 1
  36   20   21 1
  37   20   24 2
  38   21   22 2
  39   22   23 1
  40   22   38 1
  41   23   24 1
  42   23   39 1
  43   24   40 1

#	End of record

