#	Name: ASD08150265
#	Creating user name:	WinNT
#	Creation time:	15. 06. 2019 21:15

#	Modifying user name:	WinNT
#	Modification time:	15. 06. 2019 21:15

#	Program:	/corina/corina34_cracker 3.40 0067  02.08.2006

@<TRIPOS>MOLECULE
ASD08150265
  53   55    0    0    0
SMALL
NO_CHARGES


@<TRIPOS>ATOM
   1 O1            -0.8347    -0.8591    -1.0828 O.3     
   2 C2            -0.5920    -1.9880    -0.3987 C.2     
   3 N3             0.6352    -2.3651    -0.0243 N.am    
   4 C4             1.8375    -1.6090    -0.3653 C.3     
   5 C5             1.4612    -0.1732    -0.7421 C.3     
   6 C6             0.2966    -0.2246    -1.7405 C.3     
   7 O7            -1.5315    -2.7006    -0.1053 O.2     
   8 C8             2.7825    -1.5875     0.8378 C.3     
   9 O9             3.2348    -2.9151     1.1119 O.3     
  10 Si10           4.2893    -3.0138     2.3522 Si      
  11 C11            5.1879    -4.6497     2.2770 C.ar    
  12 C12            6.5688    -4.6779     2.2225 C.ar    
  13 C13            7.2338    -5.8886     2.1667 C.ar    
  14 C14            6.5177    -7.0710     2.1659 C.ar    
  15 C15            5.1368    -7.0428     2.2213 C.ar    
  16 C16            4.4720    -5.8323     2.2814 C.ar    
  17 C17            5.5253    -1.6184     2.2313 C.ar    
  18 C18            6.6164    -1.7324     1.3902 C.ar    
  19 C19            7.5310    -0.6998     1.3008 C.ar    
  20 C20            7.3544     0.4470     2.0521 C.ar    
  21 C21            6.2628     0.5614     2.8925 C.ar    
  22 C22            5.3458    -0.4694     2.9787 C.ar    
  23 C23            3.3650    -2.8866     3.9647 C.3     
  24 C24            2.6012    -4.1878     4.2188 C.3     
  25 C25            4.3576    -2.6471     5.1041 C.3     
  26 C26            2.3769    -1.7205     3.8956 C.3     
  27 H27            0.7312    -3.1772     0.4974 H       
  28 H28            2.3377    -2.0853    -1.2084 H       
  29 H29            1.1557     0.3726     0.1506 H       
  30 H30            2.3168     0.3221    -1.2011 H       
  31 H31            0.5871    -0.8060    -2.6156 H       
  32 H32            0.0264     0.7870    -2.0431 H       
  33 H33            3.6387    -0.9505     0.6160 H       
  34 H34            2.2545    -1.1968     1.7076 H       
  35 H35            7.1283    -3.7541     2.2231 H       
  36 H36            8.3127    -5.9106     2.1234 H       
  37 H37            7.0372    -8.0168     2.1216 H       
  38 H38            4.5774    -7.9666     2.2203 H       
  39 H39            3.3933    -5.8104     2.3284 H       
  40 H40            6.7544    -2.6284     0.8032 H       
  41 H41            8.3838    -0.7892     0.6442 H       
  42 H42            8.0694     1.2535     1.9827 H       
  43 H43            6.1250     1.4573     3.4797 H       
  44 H44            4.4911    -0.3785     3.6325 H       
  45 H45            3.2970    -5.0266     4.2023 H       
  46 H46            2.1140    -4.1389     5.1926 H       
  47 H47            1.8485    -4.3248     3.4424 H       
  48 H48            4.8177    -1.6662     4.9850 H       
  49 H49            3.8324    -2.6885     6.0583 H       
  50 H50            5.1299    -3.4160     5.0808 H       
  51 H51            1.5855    -1.9565     3.1842 H       
  52 H52            1.9419    -1.5539     4.8811 H       
  53 H53            2.8994    -0.8202     3.5723 H       
@<TRIPOS>BOND
   1    1    2 1
   2    1    6 1
   3    2    3 am
   4    2    7 2
   5    3    4 1
   6    3   27 1
   7    4    5 1
   8    4    8 1
   9    4   28 1
  10    5    6 1
  11    5   29 1
  12    5   30 1
  13    6   31 1
  14    6   32 1
  15    8    9 1
  16    8   33 1
  17    8   34 1
  18    9   10 1
  19   10   11 1
  20   10   17 1
  21   10   23 1
  22   11   12 ar
  23   11   16 ar
  24   12   13 ar
  25   12   35 1
  26   13   14 ar
  27   13   36 1
  28   14   15 ar
  29   14   37 1
  30   15   16 ar
  31   15   38 1
  32   16   39 1
  33   17   18 ar
  34   17   22 ar
  35   18   19 ar
  36   18   40 1
  37   19   20 ar
  38   19   41 1
  39   20   21 ar
  40   20   42 1
  41   21   22 ar
  42   21   43 1
  43   22   44 1
  44   23   24 1
  45   23   26 1
  46   23   25 1
  47   24   45 1
  48   24   46 1
  49   24   47 1
  50   25   48 1
  51   25   49 1
  52   25   50 1
  53   26   51 1
  54   26   52 1
  55   26   53 1

#	End of record

