#	Name: ASD01530072
#	Creating user name:	WinNT
#	Creation time:	15. 06. 2019 19:22

#	Modifying user name:	WinNT
#	Modification time:	15. 06. 2019 19:22

#	Program:	/corina/corina34_cracker 3.40 0067  02.08.2006

@<TRIPOS>MOLECULE
ASD01530072
  56   59    0    0    0
SMALL
NO_CHARGES


@<TRIPOS>ATOM
   1 C1             0.1768     0.8907     0.0287 C.ar    
   2 C2             0.3997    -0.4838     0.1048 C.ar    
   3 C3             1.7042    -0.9721     0.1456 C.ar    
   4 C4             2.7697    -0.0942     0.1106 C.ar    
   5 C5             1.2466     1.7572    -0.0057 C.ar    
   6 C6             1.3404     3.2633    -0.0844 C.3     
   7 C7             2.5436     1.2656     0.0357 C.ar    
   8 C8             3.4748     2.4548    -0.0175 C.3     
   9 O9             2.6758     3.5990     0.3348 O.3     
  10 C10            4.6138     2.2778     0.9886 C.3     
  11 C11            5.5461     3.4891     0.9218 C.3     
  12 C12            6.6851     3.3121     1.9279 C.3     
  13 N13            7.5803     4.4750     1.8637 N.3     
  14 C14            6.8960     5.6919     2.3209 C.3     
  15 C15            8.8067     4.2386     2.6369 C.3     
  16 C16            4.0305     2.6173    -1.4089 C.ar    
  17 C17            3.8725     3.8155    -2.0801 C.ar    
  18 C18            4.3821     3.9658    -3.3559 C.ar    
  19 C19            5.0510     2.9158    -3.9618 C.ar    
  20 C20            5.2085     1.7162    -3.2885 C.ar    
  21 C21            4.7027     1.5699    -2.0108 C.ar    
  22 F22            5.5492     3.0614    -5.2091 F       
  23 C23           -0.7480    -1.4229     0.1427 C.ar    
  24 C24           -0.5235    -2.7967     0.2188 C.ar    
  25 C25           -1.5915    -3.6677     0.2539 C.ar    
  26 C26           -2.8915    -3.1769     0.2130 C.ar    
  27 C27           -3.1176    -1.8074     0.1370 C.ar    
  28 C28           -2.0525    -0.9326     0.1080 C.ar    
  29 N29           -3.9713    -4.0605     0.2476 N.pl3   
  30 H30           -0.8321     1.2744    -0.0078 H       
  31 H31            1.8818    -2.0357     0.2050 H       
  32 H32            3.7810    -0.4719     0.1422 H       
  33 H33            1.1733     3.5970    -1.1086 H       
  34 H34            0.6108     3.7205     0.5840 H       
  35 H35            4.2007     2.1922     1.9937 H       
  36 H36            5.1740     1.3743     0.7479 H       
  37 H37            5.9591     3.5746    -0.0833 H       
  38 H38            4.9858     4.3925     1.1625 H       
  39 H39            6.2721     3.2265     2.9329 H       
  40 H40            7.2454     2.4086     1.6871 H       
  41 H41            6.5689     5.5591     3.3522 H       
  42 H42            7.5813     6.5376     2.2632 H       
  43 H43            6.0301     5.8819     1.6867 H       
  44 H44            9.3299     3.3722     2.2324 H       
  45 H45            9.4515     5.1151     2.5724 H       
  46 H46            8.5489     4.0532     3.6796 H       
  47 H47            3.3505     4.6343    -1.6074 H       
  48 H48            4.2583     4.9018    -3.8802 H       
  49 H49            5.7301     0.8965    -3.7602 H       
  50 H50            4.8291     0.6357    -1.4839 H       
  51 H51            0.4863    -3.1783     0.2500 H       
  52 H52           -1.4181    -4.7320     0.3129 H       
  53 H53           -4.1283    -1.4282     0.1050 H       
  54 H54           -2.2285     0.1316     0.0535 H       
  55 H55           -3.8144    -5.0163     0.3003 H       
  56 H56           -4.8787    -3.7189     0.2191 H       
@<TRIPOS>BOND
   1    1    2 ar
   2    1    5 ar
   3    1   30 1
   4    2    3 ar
   5    2   23 1
   6    3    4 ar
   7    3   31 1
   8    4    7 ar
   9    4   32 1
  10    5    7 ar
  11    5    6 1
  12    6    9 1
  13    6   33 1
  14    6   34 1
  15    7    8 1
  16    8    9 1
  17    8   10 1
  18    8   16 1
  19   10   11 1
  20   10   35 1
  21   10   36 1
  22   11   12 1
  23   11   37 1
  24   11   38 1
  25   12   13 1
  26   12   39 1
  27   12   40 1
  28   13   14 1
  29   13   15 1
  30   14   41 1
  31   14   42 1
  32   14   43 1
  33   15   44 1
  34   15   45 1
  35   15   46 1
  36   16   17 ar
  37   16   21 ar
  38   17   18 ar
  39   17   47 1
  40   18   19 ar
  41   18   48 1
  42   19   20 ar
  43   19   22 1
  44   20   21 ar
  45   20   49 1
  46   21   50 1
  47   23   24 ar
  48   23   28 ar
  49   24   25 ar
  50   24   51 1
  51   25   26 ar
  52   25   52 1
  53   26   27 ar
  54   26   29 1
  55   27   28 ar
  56   27   53 1
  57   28   54 1
  58   29   55 1
  59   29   56 1

#	End of record

