#	Name: ASD01001200
#	Creating user name:	WinNT
#	Creation time:	15. 06. 2019 18:55

#	Modifying user name:	WinNT
#	Modification time:	15. 06. 2019 18:55

#	Program:	/corina/corina34_cracker 3.40 0067  02.08.2006

@<TRIPOS>MOLECULE
ASD01001200
  62   66    0    0    0
SMALL
NO_CHARGES


@<TRIPOS>ATOM
   1 C1            -0.0184     1.5043     0.0103 C.3     
   2 C2             0.0021    -0.0041     0.0020 C.ar    
   3 C3            -0.7627     2.0222    -1.2180 C.3     
   4 C4            -0.1812    -0.7221    -1.1695 C.ar    
   5 C5             0.2104    -0.6770     1.1933 C.ar    
   6 C6            -0.1704     1.3778    -2.4745 C.3     
   7 C7            -0.6593     3.5425    -1.3061 C.3     
   8 C8            -0.1493    -2.1123    -1.1432 C.ar    
   9 N9            -0.4069    -0.0706    -2.3871 N.pl3   
  10 C10           -0.8475     1.9330    -3.7010 C.ar    
  11 C11            0.8142     3.9589    -1.2772 C.3     
  12 C12            0.0609    -2.7763     0.0488 C.ar    
  13 C13            0.2399    -2.0584     1.2168 C.ar    
  14 C14            1.4593     3.4012    -0.0046 C.3     
  15 C15            2.9412     3.7804     0.0262 C.3     
  16 N16            3.5567     3.2464     1.2437 N.pl3   
  17 O17            1.3301     1.9793    -0.0000 O.3     
  18 C18           -0.2308     2.9235    -4.4423 C.ar    
  19 C19           -0.8518     3.4329    -5.5673 C.ar    
  20 C20           -2.0893     2.9513    -5.9514 C.ar    
  21 C21           -2.7056     1.9601    -5.2107 C.ar    
  22 C22           -2.0826     1.4478    -4.0881 C.ar    
  23 C23            4.1515     1.9076     1.2373 C.3     
  24 C24            3.5764     4.0137     2.4106 C.ar    
  25 C25            4.1596     3.5089     3.5659 C.ar    
  26 C26            4.1779     4.2705     4.7179 C.ar    
  27 C27            3.6164     5.5343     4.7221 C.ar    
  28 C28            3.0350     6.0398     3.5737 C.ar    
  29 C29            3.0181     5.2857     2.4169 C.ar    
  30 N30            5.5674     2.0026     0.8578 N.3     
  31 C31            0.4674    -2.7837     2.5180 C.3     
  32 F32            0.4555    -4.1640     2.2907 F       
  33 F33            1.7059    -2.4093     3.0502 F       
  34 F34           -0.5480    -2.4510     3.4211 F       
  35 H35           -0.5200     1.8556     0.9121 H       
  36 H36           -1.8125     1.7376    -1.1475 H       
  37 H37            0.3508    -0.1203     2.1081 H       
  38 H38            0.9005     1.5752    -2.5213 H       
  39 H39           -1.1150     3.8841    -2.2354 H       
  40 H40           -1.1801     3.9914    -0.4603 H       
  41 H41           -0.2894    -2.6727    -2.0558 H       
  42 H42           -0.7150    -0.5669    -3.1615 H       
  43 H43            1.3249     3.5566    -2.1521 H       
  44 H44            0.8867     5.0465    -1.2771 H       
  45 H45            0.0852    -3.8559     0.0690 H       
  46 H46            0.9585     3.8166     0.8700 H       
  47 H47            3.4415     3.3622    -0.8473 H       
  48 H48            3.0388     4.8659     0.0158 H       
  49 H49            0.7361     3.2997    -4.1422 H       
  50 H50           -0.3703     4.2072    -6.1460 H       
  51 H51           -2.5749     3.3498    -6.8300 H       
  52 H52           -3.6726     1.5842    -5.5106 H       
  53 H53           -2.5641     0.6734    -3.5094 H       
  54 H54            4.0705     1.4692     2.2320 H       
  55 H55            3.6243     1.2792     0.5194 H       
  56 H56            4.5980     2.5219     3.5634 H       
  57 H57            4.6308     3.8785     5.6165 H       
  58 H58            3.6317     6.1276     5.6244 H       
  59 H59            2.5974     7.0272     3.5804 H       
  60 H60            2.5642     5.6812     1.5203 H       
  61 H61            6.0006     1.0914     0.8460 H       
  62 H62            5.6728     2.4646    -0.0331 H       
@<TRIPOS>BOND
   1    1    2 1
   2    1   17 1
   3    1    3 1
   4    1   35 1
   5    2    4 ar
   6    2    5 ar
   7    3    7 1
   8    3    6 1
   9    3   36 1
  10    4    8 ar
  11    4    9 1
  12    5   13 ar
  13    5   37 1
  14    6    9 1
  15    6   10 1
  16    6   38 1
  17    7   11 1
  18    7   39 1
  19    7   40 1
  20    8   12 ar
  21    8   41 1
  22    9   42 1
  23   10   18 ar
  24   10   22 ar
  25   11   14 1
  26   11   43 1
  27   11   44 1
  28   12   13 ar
  29   12   45 1
  30   13   31 1
  31   14   15 1
  32   14   17 1
  33   14   46 1
  34   15   16 1
  35   15   47 1
  36   15   48 1
  37   16   23 1
  38   16   24 1
  39   18   19 ar
  40   18   49 1
  41   19   20 ar
  42   19   50 1
  43   20   21 ar
  44   20   51 1
  45   21   22 ar
  46   21   52 1
  47   22   53 1
  48   23   30 1
  49   23   54 1
  50   23   55 1
  51   24   25 ar
  52   24   29 ar
  53   25   26 ar
  54   25   56 1
  55   26   27 ar
  56   26   57 1
  57   27   28 ar
  58   27   58 1
  59   28   29 ar
  60   28   59 1
  61   29   60 1
  62   30   61 1
  63   30   62 1
  64   31   32 1
  65   31   33 1
  66   31   34 1

#	End of record

