#	Name: ASD01028473
#	Creating user name:	WinNT
#	Creation time:	15. 06. 2019 18:57

#	Modifying user name:	WinNT
#	Modification time:	15. 06. 2019 18:57

#	Program:	/corina/corina34_cracker 3.40 0067  02.08.2006

@<TRIPOS>MOLECULE
ASD01028473
  57   62    0    0    0
SMALL
NO_CHARGES


@<TRIPOS>ATOM
   1 C1            -0.0171     1.4118     0.0098 C.ar    
   2 C2             0.0021    -0.0041     0.0020 C.ar    
   3 C3             1.2105     2.1116     0.0018 C.ar    
   4 C4             2.3793     1.3714    -0.0133 C.ar    
   5 C5             2.3160    -0.0162    -0.0202 C.ar    
   6 N6             1.1704    -0.6565    -0.0123 N.ar    
   7 O7             1.2420     3.4670     0.0084 O.3     
   8 C8             2.5299     4.0861    -0.0005 C.3     
   9 C9             2.3673     5.5842     0.0086 C.2     
  10 N10            2.2915     6.3712     1.1039 N.pl3   
  11 C11            2.1486     7.6566     0.6383 C.2     
  12 N12            2.1449     7.5870    -0.6829 N.2     
  13 N13            2.2796     6.3587    -1.0441 N.2     
  14 N14            2.3291     6.1243     2.4777 N.2     
  15 C15            2.2286     7.1153     3.3363 C.2     
  16 C16            2.0805     8.4457     2.8892 C.2     
  17 C17            2.0417     8.7170     1.5582 C.2     
  18 C18            2.2708     6.8315     4.7912 C.ar    
  19 C19           -1.2152    -0.7043     0.0100 C.ar    
  20 C20           -2.4012    -0.0065     0.0251 C.ar    
  21 C21           -2.4085     1.3917     0.0322 C.ar    
  22 C22           -1.2431     2.0938     0.0309 C.ar    
  23 O23           -3.5786    -0.6840     0.0328 O.3     
  24 C24           -4.7758     0.0961     0.0485 C.3     
  25 C25            2.1655     7.8720     5.7128 C.ar    
  26 C26            2.2092     7.6085     7.0636 C.ar    
  27 C27            2.3585     6.3008     7.5227 C.ar    
  28 C28            2.4547     5.2665     6.5978 C.ar    
  29 C29            2.4106     5.5204     5.2477 C.ar    
  30 O30            2.4420     5.8297     8.7971 O.3     
  31 C31            2.1485     4.4224     8.8018 C.3     
  32 C32            2.5830     3.9768     7.3856 C.3     
  33 C33            2.9694     3.7010     9.8726 C.3     
  34 C34            0.6520     4.1816     9.0104 C.3     
  35 H35            3.3370     1.8705    -0.0202 H       
  36 H36            3.2348    -0.5838    -0.0321 H       
  37 H37            3.0883     3.7758     0.8827 H       
  38 H38            3.0716     3.7849    -0.8972 H       
  39 H39            1.9985     9.2494     3.6060 H       
  40 H40            1.9291     9.7333     1.2104 H       
  41 H41           -1.2205    -1.7843     0.0039 H       
  42 H42           -3.3501     1.9205     0.0433 H       
  43 H43           -1.2617     3.1736     0.0364 H       
  44 H44           -4.8082     0.7297    -0.8378 H       
  45 H45           -5.6412    -0.5666     0.0533 H       
  46 H46           -4.7911     0.7202     0.9420 H       
  47 H47            2.0496     8.8883     5.3662 H       
  48 H48            2.1275     8.4199     7.7716 H       
  49 H49            2.4927     4.7075     4.5414 H       
  50 H50            1.9111     3.2129     6.9943 H       
  51 H51            3.6139     3.6227     7.3878 H       
  52 H52            2.7116     4.0958    10.8554 H       
  53 H53            2.7503     2.6338     9.8408 H       
  54 H54            4.0313     3.8597     9.6845 H       
  55 H55            0.0904     4.6769     8.2183 H       
  56 H56            0.4492     3.1109     8.9847 H       
  57 H57            0.3502     4.5854     9.9768 H       
@<TRIPOS>BOND
   1    1    2 ar
   2    1    3 ar
   3    1   22 ar
   4    2   19 ar
   5    2    6 ar
   6    3    4 ar
   7    3    7 1
   8    4    5 ar
   9    4   35 1
  10    5    6 ar
  11    5   36 1
  12    7    8 1
  13    8    9 1
  14    8   37 1
  15    8   38 1
  16    9   10 1
  17    9   13 2
  18   10   11 1
  19   10   14 1
  20   11   12 2
  21   11   17 1
  22   12   13 1
  23   14   15 2
  24   15   16 1
  25   15   18 1
  26   16   17 2
  27   16   39 1
  28   17   40 1
  29   18   25 ar
  30   18   29 ar
  31   19   20 ar
  32   19   41 1
  33   20   21 ar
  34   20   23 1
  35   21   22 ar
  36   21   42 1
  37   22   43 1
  38   23   24 1
  39   24   44 1
  40   24   45 1
  41   24   46 1
  42   25   26 ar
  43   25   47 1
  44   26   27 ar
  45   26   48 1
  46   27   28 ar
  47   27   30 1
  48   28   29 ar
  49   28   32 1
  50   29   49 1
  51   30   31 1
  52   31   32 1
  53   31   33 1
  54   31   34 1
  55   32   50 1
  56   32   51 1
  57   33   52 1
  58   33   53 1
  59   33   54 1
  60   34   55 1
  61   34   56 1
  62   34   57 1

#	End of record

