#	Name: ASD00470002
#	Creating user name:	WinNT
#	Creation time:	15. 06. 2019 18:36

#	Modifying user name:	WinNT
#	Modification time:	15. 06. 2019 18:36

#	Program:	/corina/corina34_cracker 3.40 0067  02.08.2006

@<TRIPOS>MOLECULE
ASD00470002
  63   67    0    0    0
SMALL
NO_CHARGES


@<TRIPOS>ATOM
   1 C1             1.0941     1.4817    -1.3341 C.ar    
   2 C2             0.9093     0.1164    -1.4431 C.ar    
   3 C3             0.5775    -0.6279    -0.3250 C.ar    
   4 C4             0.4310    -0.0048     0.9016 C.ar    
   5 C5             0.6160     1.3606     1.0093 C.ar    
   6 C6             0.9475     2.1038    -0.1083 C.ar    
   7 C7             1.1497     3.5925     0.0099 C.3     
   8 N8             0.8728     4.2269    -1.2813 N.pl3   
   9 C9             0.2126     4.1455     1.0525 C.ar    
  10 C10            0.7090     4.9098     2.0920 C.ar    
  11 C11           -0.1499     5.4172     3.0485 C.ar    
  12 C12           -1.5069     5.1605     2.9653 C.ar    
  13 C13           -2.0032     4.3959     1.9246 C.ar    
  14 C14           -1.1438     3.8930     0.9659 C.ar    
  15 C15           -0.2618     4.0942    -1.9841 C.2     
  16 C16           -0.1423     4.8237    -3.1098 C.2     
  17 N17            1.0963     5.4054    -3.0751 N.pl3   
  18 C18            1.6890     5.0148    -1.9263 C.cat   
  19 C19            1.6697     6.2907    -4.0918 C.3     
  20 C20            1.3138     7.7421    -3.7637 C.3     
  21 C21            2.0045     8.6613    -4.7379 C.ar    
  22 O22           -0.1007     7.9196    -3.8621 O.3     
  23 C23            1.3374     9.0993    -5.8662 C.ar    
  24 C24            1.9703     9.9425    -6.7604 C.ar    
  25 C25            3.2721    10.3480    -6.5264 C.ar    
  26 C26            3.9404     9.9098    -5.3970 C.ar    
  27 C27            3.3045     9.0711    -4.4996 C.ar    
  28 Cl28          -2.5863     5.7970     4.1667 Cl      
  29 Cl29           0.3446    -2.3428    -0.4611 Cl      
  30 Cl30           4.0671    11.4059    -7.6499 Cl      
  31 C31           -0.6230     8.9216    -2.9873 C.3     
  32 C32           -2.1149     9.0235    -3.1742 C.ar    
  33 C33           -2.8446     9.9327    -2.4295 C.ar    
  34 C34           -4.2143    10.0262    -2.6012 C.ar    
  35 C35           -4.8531     9.2104    -3.5174 C.ar    
  36 C36           -4.1220     8.3013    -4.2617 C.ar    
  37 C37           -2.7532     8.2124    -4.0938 C.ar    
  38 Cl38          -2.0420    10.9558    -1.2794 Cl      
  39 Cl39          -6.5717     9.3265    -3.7331 Cl      
  40 Cl40           4.1421     8.5212    -3.0820 Cl      
  41 H41            1.3575     2.0622    -2.2060 H       
  42 H42            1.0235    -0.3694    -2.4009 H       
  43 H43            0.1716    -0.5852     1.7747 H       
  44 H44            0.5017     1.8471     1.9667 H       
  45 H45            2.1797     3.7972     0.3019 H       
  46 H46            1.7683     5.1101     2.1568 H       
  47 H47            0.2381     6.0137     3.8609 H       
  48 H48           -3.0623     4.1951     1.8591 H       
  49 H49           -1.5311     3.2961     0.1535 H       
  50 H50           -1.1207     3.5055    -1.6976 H       
  51 H51           -0.8815     4.9292    -3.8901 H       
  52 H52            2.6773     5.3017    -1.5987 H       
  53 H53            2.7536     6.1762    -4.1038 H       
  54 H54            1.2660     6.0299    -5.0701 H       
  55 H55            1.6397     7.9758    -2.7501 H       
  56 H56            0.3214     8.7824    -6.0497 H       
  57 H57            1.4485    10.2844    -7.6420 H       
  58 H58            4.9567    10.2261    -5.2139 H       
  59 H59           -0.4038     8.6521    -1.9542 H       
  60 H60           -0.1615     9.8818    -3.2180 H       
  61 H61           -4.7845    10.7356    -2.0198 H       
  62 H62           -4.6208     7.6643    -4.9772 H       
  63 H63           -2.1830     7.5028    -4.6750 H       
@<TRIPOS>BOND
   1    1    2 ar
   2    1    6 ar
   3    1   41 1
   4    2    3 ar
   5    2   42 1
   6    3    4 ar
   7    3   29 1
   8    4    5 ar
   9    4   43 1
  10    5    6 ar
  11    5   44 1
  12    6    7 1
  13    7    8 1
  14    7    9 1
  15    7   45 1
  16    8   15 1
  17    8   18 ar
  18    9   10 ar
  19    9   14 ar
  20   10   11 ar
  21   10   46 1
  22   11   12 ar
  23   11   47 1
  24   12   13 ar
  25   12   28 1
  26   13   14 ar
  27   13   48 1
  28   14   49 1
  29   15   16 2
  30   15   50 1
  31   16   17 1
  32   16   51 1
  33   17   18 ar
  34   17   19 1
  35   18   52 1
  36   19   20 1
  37   19   53 1
  38   19   54 1
  39   20   21 1
  40   20   22 1
  41   20   55 1
  42   21   23 ar
  43   21   27 ar
  44   22   31 1
  45   23   24 ar
  46   23   56 1
  47   24   25 ar
  48   24   57 1
  49   25   26 ar
  50   25   30 1
  51   26   27 ar
  52   26   58 1
  53   27   40 1
  54   31   32 1
  55   31   59 1
  56   31   60 1
  57   32   33 ar
  58   32   37 ar
  59   33   34 ar
  60   33   38 1
  61   34   35 ar
  62   34   61 1
  63   35   36 ar
  64   35   39 1
  65   36   37 ar
  66   36   62 1
  67   37   63 1

#	End of record

