#	Name: ASD02560289
#	Creating user name:	WinNT
#	Creation time:	15. 06. 2019 20:25

#	Modifying user name:	WinNT
#	Modification time:	15. 06. 2019 20:25

#	Program:	/corina/corina34_cracker 3.40 0067  02.08.2006

@<TRIPOS>MOLECULE
ASD02560289
  48   50    0    0    0
SMALL
NO_CHARGES


@<TRIPOS>ATOM
   1 N1             0.4651     1.3221    -0.0982 N.ar    
   2 C2             0.4536    -0.0062    -0.0971 C.ar    
   3 C3             1.6481    -0.6917     0.1176 C.ar    
   4 C4             2.8000     0.0449     0.3215 C.ar    
   5 N5             2.7319     1.3679     0.3061 N.ar    
   6 C6             1.5860     1.9856     0.1002 C.ar    
   7 O7            -0.7019    -0.6845    -0.3013 O.3     
   8 C8            -1.8355     0.0344    -0.5048 C.ar    
   9 C9            -4.1489     1.5019    -0.9202 C.ar    
  10 C10           -3.7732     1.1378     0.3757 C.ar    
  11 C11           -2.6222     0.4089     0.5778 C.ar    
  12 C12           -2.2028     0.3984    -1.7947 C.ar    
  13 C13           -3.3518     1.1281    -2.0056 C.ar    
  14 C14           -2.2156     0.0166     1.9749 C.3     
  15 C15           -1.3425    -0.0053    -2.9643 C.3     
  16 C16           -5.3448     2.2597    -1.1350 C.1     
  17 N17           -6.2936     2.8608    -1.3053 N.1     
  18 S18            1.5522     3.7472     0.0894 S.o2    
  19 C19            1.2346     4.2045     1.8158 C.3     
  20 C20            1.1826     5.7057     1.9365 C.2     
  21 N21            0.9569     6.2780     3.1356 N.am    
  22 C22            1.0053     7.6703     3.2666 C.ar    
  23 O23            1.3440     6.3990     0.9544 O.2     
  24 C24            1.5553     9.6182     4.5543 C.ar    
  25 C25            1.5086     8.2425     4.4274 C.ar    
  26 C26            0.5553     8.4821     2.2338 C.ar    
  27 C27            0.6042     9.8572     2.3658 C.ar    
  28 C28            1.1010    10.4250     3.5259 C.ar    
  29 O29            2.8694     4.1207    -0.2911 O.2     
  30 O30            0.4345     4.0713    -0.7260 O.2     
  31 Cl31           0.0424    10.8729     1.0748 Cl      
  32 Cl32           2.1839    10.3345     6.0054 Cl      
  33 H33            1.6730    -1.7714     0.1250 H       
  34 H34            3.7438    -0.4520     0.4914 H       
  35 H35           -4.3864     1.4247     1.2172 H       
  36 H36           -3.6385     1.4074    -3.0087 H       
  37 H37           -2.6541    -0.9500     2.2230 H       
  38 H38           -1.1292    -0.0521     2.0313 H       
  39 H39           -2.5693     0.7680     2.6808 H       
  40 H40           -1.6712    -0.9744    -3.3397 H       
  41 H41           -1.4314     0.7397    -3.7550 H       
  42 H42           -0.3028    -0.0732    -2.6443 H       
  43 H43            0.2821     3.7812     2.1345 H       
  44 H44            2.0340     3.8167     2.4473 H       
  45 H45            0.7608     5.7247     3.9078 H       
  46 H46            1.8630     7.6133     5.2304 H       
  47 H47            0.1678     8.0395     1.3281 H       
  48 H48            1.1383    11.4996     3.6270 H       
@<TRIPOS>BOND
   1    1    2 ar
   2    1    6 ar
   3    2    3 ar
   4    2    7 1
   5    3    4 ar
   6    3   33 1
   7    4    5 ar
   8    4   34 1
   9    5    6 ar
  10    6   18 1
  11    7    8 1
  12    8   12 ar
  13    8   11 ar
  14    9   10 ar
  15    9   13 ar
  16    9   16 1
  17   10   11 ar
  18   10   35 1
  19   11   14 1
  20   12   13 ar
  21   12   15 1
  22   13   36 1
  23   14   37 1
  24   14   38 1
  25   14   39 1
  26   15   40 1
  27   15   41 1
  28   15   42 1
  29   16   17 3
  30   18   19 1
  31   18   29 2
  32   18   30 2
  33   19   20 1
  34   19   43 1
  35   19   44 1
  36   20   21 am
  37   20   23 2
  38   21   22 1
  39   21   45 1
  40   22   26 ar
  41   22   25 ar
  42   24   25 ar
  43   24   28 ar
  44   24   32 1
  45   25   46 1
  46   26   27 ar
  47   26   47 1
  48   27   28 ar
  49   27   31 1
  50   28   48 1

#	End of record

