#	Name: ASD01148501
#	Creating user name:	WinNT
#	Creation time:	15. 06. 2019 19:02

#	Modifying user name:	WinNT
#	Modification time:	15. 06. 2019 19:02

#	Program:	/corina/corina34_cracker 3.40 0067  02.08.2006

@<TRIPOS>MOLECULE
ASD01148501
  61   65    0    0    0
SMALL
NO_CHARGES


@<TRIPOS>ATOM
   1 C1             0.0553     0.5141    -0.5866 C.ar    
   2 C2             0.3531    -0.8366    -0.6159 C.ar    
   3 C3             1.6632    -1.2588    -0.4763 C.ar    
   4 C4             2.6737    -0.3310    -0.3077 C.ar    
   5 C5             2.3755     1.0186    -0.2785 C.ar    
   6 C6             1.0666     1.4410    -0.4179 C.ar    
   7 C7             3.4777     2.0296    -0.0941 C.3     
   8 O8             4.7113     1.5598    -0.6745 O.3     
   9 C9             3.2035     3.3055    -0.9256 C.3     
  10 C10            3.9601     3.0301    -2.2113 C.2     
  11 N11            4.7741     2.0490    -1.9996 N.2     
  12 C12            3.7947     3.7557    -3.4824 C.ar    
  13 C13            4.5917     3.3852    -4.6493 C.ar    
  14 C14            2.8764     4.7920    -3.5808 C.ar    
  15 C15            2.7001     5.4900    -4.7621 C.ar    
  16 C16            3.4341     5.1841    -5.9004 C.ar    
  17 C17            4.4117     4.0991    -5.8577 C.ar    
  18 C18            3.2243     5.9447    -7.1446 C.2     
  19 O19            2.7116     5.4067    -8.1067 O.2     
  20 N20            3.6007     7.2368    -7.2162 N.am    
  21 C21            5.1737     3.7555    -6.9813 C.ar    
  22 C22            5.5257     2.3426    -4.5972 C.ar    
  23 C23            3.6634     2.3692     1.3861 C.3     
  24 F24            3.9789     1.2055     2.0955 F       
  25 F25            4.7020     3.2962     1.5252 F       
  26 F26            2.4791     2.9166     1.8911 F       
  27 Cl27          -0.9167    -2.0014    -0.8271 Cl      
  28 C28            3.4794     7.9661    -8.4809 C.3     
  29 C29            2.1233     8.6191    -8.5562 C.ar    
  30 N30            1.0910     7.9280    -8.9982 N.ar    
  31 C31            4.0888     7.8580    -6.1242 C.2     
  32 C32           -0.1139     8.4578    -9.0813 C.ar    
  33 C33           -0.3373     9.7684    -8.7047 C.ar    
  34 C34            0.7243    10.5268    -8.2347 C.ar    
  35 C35            1.9749     9.9337    -8.1558 C.ar    
  36 O36            4.1063     7.2822    -5.0548 O.2     
  37 O37            4.5569     9.1165    -6.2187 O.3     
  38 C38            5.0674     9.7230    -5.0022 C.3     
  39 C39            6.2482     2.0297    -5.7102 C.ar    
  40 C40            6.0746     2.7355    -6.8977 C.ar    
  41 H41           -0.9667     0.8445    -0.7000 H       
  42 H42            1.8963    -2.3131    -0.4987 H       
  43 H43            3.6964    -0.6604    -0.1983 H       
  44 H44            0.8343     2.4955    -0.3951 H       
  45 H45            2.1371     3.4184    -1.1208 H       
  46 H46            3.6016     4.1874    -0.4237 H       
  47 H47            2.2865     5.0589    -2.7164 H       
  48 H48            1.9756     6.2901    -4.7999 H       
  49 H49            5.0481     4.2949    -7.9085 H       
  50 H50            5.6728     1.7903    -3.6809 H       
  51 H51            4.2543     8.7308    -8.5352 H       
  52 H52            3.5951     7.2719    -9.3132 H       
  53 H53           -0.9355     7.8606    -9.4484 H       
  54 H54           -1.3261    10.1969    -8.7757 H       
  55 H55            0.5795    11.5538    -7.9336 H       
  56 H56            2.8242    10.4944    -7.7942 H       
  57 H57            5.4121    10.7344    -5.2174 H       
  58 H58            4.2749     9.7605    -4.2547 H       
  59 H59            5.8983     9.1293    -4.6212 H       
  60 H60            6.9680     1.2257    -5.6690 H       
  61 H61            6.6615     2.4711    -7.7649 H       
@<TRIPOS>BOND
   1    1    2 ar
   2    1    6 ar
   3    1   41 1
   4    2    3 ar
   5    2   27 1
   6    3    4 ar
   7    3   42 1
   8    4    5 ar
   9    4   43 1
  10    5    6 ar
  11    5    7 1
  12    6   44 1
  13    7    8 1
  14    7    9 1
  15    7   23 1
  16    8   11 1
  17    9   10 1
  18    9   45 1
  19    9   46 1
  20   10   11 2
  21   10   12 1
  22   12   13 ar
  23   12   14 ar
  24   13   22 ar
  25   13   17 ar
  26   14   15 ar
  27   14   47 1
  28   15   16 ar
  29   15   48 1
  30   16   17 ar
  31   16   18 1
  32   17   21 ar
  33   18   19 2
  34   18   20 am
  35   20   28 1
  36   20   31 am
  37   21   40 ar
  38   21   49 1
  39   22   39 ar
  40   22   50 1
  41   23   24 1
  42   23   25 1
  43   23   26 1
  44   28   29 1
  45   28   51 1
  46   28   52 1
  47   29   30 ar
  48   29   35 ar
  49   30   32 ar
  50   31   36 2
  51   31   37 1
  52   32   33 ar
  53   32   53 1
  54   33   34 ar
  55   33   54 1
  56   34   35 ar
  57   34   55 1
  58   35   56 1
  59   37   38 1
  60   38   57 1
  61   38   58 1
  62   38   59 1
  63   39   40 ar
  64   39   60 1
  65   40   61 1

#	End of record

