#	Name: ASD07480016
#	Creating user name:	WinNT
#	Creation time:	15. 06. 2019 21:11

#	Modifying user name:	WinNT
#	Modification time:	15. 06. 2019 21:11

#	Program:	/corina/corina34_cracker 3.40 0067  02.08.2006

@<TRIPOS>MOLECULE
ASD07480016
  51   55    0    0    0
SMALL
NO_CHARGES


@<TRIPOS>ATOM
   1 C1             0.3608     1.6993     0.0027 C.2     
   2 C2             0.2545     0.2861     0.0083 C.2     
   3 N3             1.3412    -0.4507     0.1207 N.2     
   4 C4             2.5570     0.1213     0.1714 C.2     
   5 N5             2.6902     1.4795     0.0305 N.pl3   
   6 C6             1.5789     2.2773    -0.0223 C.2     
   7 C7             3.8310    -0.3786     0.3818 C.2     
   8 C8             4.7280     0.6700     0.2216 C.2     
   9 N9             4.0575     1.7723    -0.0150 N.2     
  10 N10           -0.9967    -0.2613    -0.1280 N.pl3   
  11 C11           -1.4763    -1.3260    -1.0192 C.3     
  12 C12           -2.1880     0.2604     0.6064 C.3     
  13 C13           -3.3848     0.0155    -0.3294 C.3     
  14 C14           -2.8948    -0.8743    -1.4931 C.3     
  15 C15           -1.6919    -2.6264    -0.2924 C.ar    
  16 C16           -3.0036    -2.9974     0.0068 C.ar    
  17 C17           -3.2199    -4.2075     0.6487 C.ar    
  18 C18           -2.1391    -5.0061     0.9747 C.ar    
  19 N19           -0.9119    -4.6266     0.6826 N.ar    
  20 C20           -0.6591    -3.4807     0.0596 C.ar    
  21 C21            4.2079    -1.7917     0.7457 C.3     
  22 F22           -4.4755    -4.6024     0.9533 F       
  23 O23            0.6305    -3.1799    -0.2292 O.3     
  24 C24            1.5432    -4.2837    -0.1443 C.3     
  25 C25            2.7765    -3.8463     0.6505 C.3     
  26 N26            3.4056    -2.7192    -0.0813 N.am    
  27 S27            3.2215    -2.5132    -1.7141 S.o2    
  28 O28            1.8306    -2.7009    -1.9363 O.2     
  29 O29            3.8443    -1.2645    -1.9823 O.2     
  30 C30            4.1727    -3.8704    -2.4517 C.3     
  31 H31           -0.5296     2.3104     0.0139 H       
  32 H32            1.6761     3.3512    -0.0833 H       
  33 H33            5.8034     0.5905     0.2820 H       
  34 H34           -0.8382    -1.4390    -1.8785 H       
  35 H35           -2.3227    -0.2831     1.5415 H       
  36 H36           -2.0737     1.3266     0.8019 H       
  37 H37           -4.1817    -0.4919     0.2142 H       
  38 H38           -3.7505     0.9657    -0.7187 H       
  39 H39           -2.8276    -0.2988    -2.4164 H       
  40 H40           -3.5504    -1.7355    -1.6223 H       
  41 H41           -3.8320    -2.3560    -0.2554 H       
  42 H42           -2.3027    -5.9498     1.4738 H       
  43 H43            5.2684    -1.9500     0.5494 H       
  44 H44            3.9978    -1.9667     1.8008 H       
  45 H45            1.0598    -5.1191     0.3621 H       
  46 H46            1.8438    -4.5868    -1.1473 H       
  47 H47            2.4777    -3.5196     1.6465 H       
  48 H48            3.4798    -4.6754     0.7278 H       
  49 H49            3.8264    -4.8202    -2.0442 H       
  50 H50            4.0331    -3.8664    -3.5327 H       
  51 H51            5.2301    -3.7401    -2.2213 H       
@<TRIPOS>BOND
   1    1    2 1
   2    1    6 2
   3    1   31 1
   4    2    3 2
   5    2   10 1
   6    3    4 1
   7    4    5 1
   8    4    7 2
   9    5    6 1
  10    5    9 1
  11    6   32 1
  12    7    8 1
  13    7   21 1
  14    8    9 2
  15    8   33 1
  16   10   11 1
  17   10   12 1
  18   11   14 1
  19   11   15 1
  20   11   34 1
  21   12   13 1
  22   12   35 1
  23   12   36 1
  24   13   14 1
  25   13   37 1
  26   13   38 1
  27   14   39 1
  28   14   40 1
  29   15   16 ar
  30   15   20 ar
  31   16   17 ar
  32   16   41 1
  33   17   18 ar
  34   17   22 1
  35   18   19 ar
  36   18   42 1
  37   19   20 ar
  38   20   23 1
  39   21   26 1
  40   21   43 1
  41   21   44 1
  42   23   24 1
  43   24   25 1
  44   24   45 1
  45   24   46 1
  46   25   26 1
  47   25   47 1
  48   25   48 1
  49   26   27 am
  50   27   28 2
  51   27   29 2
  52   27   30 1
  53   30   49 1
  54   30   50 1
  55   30   51 1

#	End of record

