#	Name: ASD01841037
#	Creating user name:	WinNT
#	Creation time:	15. 06. 2019 19:38

#	Modifying user name:	WinNT
#	Modification time:	15. 06. 2019 19:38

#	Program:	/corina/corina34_cracker 3.40 0067  02.08.2006

@<TRIPOS>MOLECULE
ASD01841037
  34   36    0    0    0
SMALL
NO_CHARGES


@<TRIPOS>ATOM
   1 C1            -0.0180     1.4736     0.0101 C.2     
   2 C2             0.0021    -0.0041     0.0020 C.ar    
   3 O3             1.0263     2.0957     0.0035 O.2     
   4 N4            -1.1942     2.1316     0.0193 N.am    
   5 S5            -2.6697     4.5007     0.0392 S.3     
   6 C6            -1.2130     3.5165     0.0269 C.2     
   7 N7            -0.1661     4.2660     0.0260 N.2     
   8 C8            -0.3466     5.6021     0.0341 C.ar    
   9 C9            -1.6946     5.9683     0.0425 C.ar    
  10 C10           -2.0608     7.3132     0.0516 C.ar    
  11 C11           -1.0962     8.2959     0.0519 C.ar    
  12 C12            0.2467     7.9501     0.0436 C.ar    
  13 C13            0.6285     6.6274     0.0351 C.ar    
  14 C14           -3.5190     7.6935     0.0606 C.3     
  15 O15            1.9490     6.3047     0.0275 O.3     
  16 C16            2.8814     7.3876     0.0290 C.3     
  17 C17           -1.1898    -0.7299     0.0095 C.ar    
  18 N18           -1.1719    -2.0467     0.0018 N.ar    
  19 C19           -0.0424    -2.7282    -0.0131 C.ar    
  20 C20            1.1813    -2.0827    -0.0214 C.ar    
  21 C21            1.2174    -0.6996    -0.0192 C.ar    
  22 H22           -2.0276     1.6352     0.0206 H       
  23 H23           -1.3857     9.3364     0.0582 H       
  24 H24            0.9993     8.7247     0.0436 H       
  25 H25           -3.8657     7.7797     1.0904 H       
  26 H26           -3.6484     8.6492    -0.4475 H       
  27 H27           -4.0976     6.9269    -0.4547 H       
  28 H28            3.8972     6.9923     0.0224 H       
  29 H29            2.7252     8.0028    -0.8572 H       
  30 H30            2.7331     7.9936     0.9228 H       
  31 H31           -2.1348    -0.2073     0.0221 H       
  32 H32           -0.0735    -3.8077    -0.0186 H       
  33 H33            2.0987    -2.6524    -0.0332 H       
  34 H34            2.1587    -0.1701    -0.0255 H       
@<TRIPOS>BOND
   1    1    2 1
   2    1    3 2
   3    1    4 am
   4    2   17 ar
   5    2   21 ar
   6    4    6 1
   7    4   22 1
   8    5    6 1
   9    5    9 1
  10    6    7 2
  11    7    8 1
  12    8    9 ar
  13    8   13 ar
  14    9   10 ar
  15   10   11 ar
  16   10   14 1
  17   11   12 ar
  18   11   23 1
  19   12   13 ar
  20   12   24 1
  21   13   15 1
  22   14   25 1
  23   14   26 1
  24   14   27 1
  25   15   16 1
  26   16   28 1
  27   16   29 1
  28   16   30 1
  29   17   18 ar
  30   17   31 1
  31   18   19 ar
  32   19   20 ar
  33   19   32 1
  34   20   21 ar
  35   20   33 1
  36   21   34 1

#	End of record

