#	Name: ASD01900118
#	Creating user name:	WinNT
#	Creation time:	15. 06. 2019 19:51

#	Modifying user name:	WinNT
#	Modification time:	15. 06. 2019 19:51

#	Program:	/corina/corina34_cracker 3.40 0067  02.08.2006

@<TRIPOS>MOLECULE
ASD01900118
  59   63    0    0    0
SMALL
NO_CHARGES


@<TRIPOS>ATOM
   1 C1             0.7509     0.6930    -0.8415 C.ar    
   2 C2             1.0387    -0.6198    -1.1499 C.ar    
   3 C3             2.3454    -1.0135    -1.3992 C.ar    
   4 C4             3.3796    -0.0978    -1.3351 C.ar    
   5 C5             3.1075     1.2225    -1.0211 C.ar    
   6 C6             1.7821     1.6277    -0.7822 C.ar    
   7 N7             4.1159     2.1751    -0.9257 N.pl3   
   8 C8             3.7946     3.5770    -1.2161 C.3     
   9 N9             2.5191     3.9434    -0.5996 N.am    
  10 C10            1.5256     3.0426    -0.4630 C.2     
  11 C11            2.3273     5.2531    -0.1424 C.ar    
  12 C12            2.8664     5.6502     1.0741 C.ar    
  13 C13            2.6769     6.9418     1.5243 C.ar    
  14 C14            1.9476     7.8424     0.7618 C.ar    
  15 C15            1.4087     7.4465    -0.4536 C.ar    
  16 C16            1.6027     6.1570    -0.9080 C.ar    
  17 O17            0.4265     3.3952    -0.0798 O.2     
  18 O18            1.7606     9.1138     1.2061 O.3     
  19 C19            4.9045     4.4750    -0.6616 C.3     
  20 C20            3.7035     3.7717    -2.7323 C.3     
  21 C21            3.4363     5.2477    -3.0361 C.3     
  22 N22            4.5222     6.0670    -2.4834 N.3     
  23 C23            4.6016     5.9310    -1.0235 C.3     
  24 C24            4.3701     7.4751    -2.8734 C.3     
  25 C25            5.5614     8.2616    -2.3905 C.2     
  26 C26            1.0329     9.9990     0.3524 C.3     
  27 Br27           2.7154    -2.8173    -1.8298 Br      
  28 F28           -0.2456     9.4792     0.1227 F       
  29 F29            0.9237    11.2523     0.9643 F       
  30 F30            1.7079    10.1320    -0.8658 F       
  31 C31            6.6755     8.5262    -3.1027 C.2     
  32 C32            7.5320     9.2841    -2.2798 C.2     
  33 C33            6.9087     9.4538    -1.0962 C.2     
  34 N34            5.6962     8.8334    -1.1601 N.pl3   
  35 C35            4.7040     8.7858    -0.0834 C.3     
  36 H36           -0.2683     0.9956    -0.6515 H       
  37 H37            0.2414    -1.3468    -1.1972 H       
  38 H38            4.3948    -0.4114    -1.5287 H       
  39 H39            5.0157     1.9175    -0.6713 H       
  40 H40            3.4336     4.9489     1.6682 H       
  41 H41            3.0961     7.2507     2.4704 H       
  42 H42            0.8408     8.1481    -1.0466 H       
  43 H43            1.1868     5.8502    -1.8564 H       
  44 H44            4.9496     4.3710     0.4225 H       
  45 H45            5.8605     4.1831    -1.0963 H       
  46 H46            4.6427     3.4689    -3.1953 H       
  47 H47            2.8892     3.1652    -3.1288 H       
  48 H48            3.3849     5.3928    -4.1151 H       
  49 H49            2.4902     5.5459    -2.5842 H       
  50 H50            3.6508     6.2254    -0.5790 H       
  51 H51            5.3953     6.5729    -0.6414 H       
  52 H52            4.3036     7.5463    -3.9590 H       
  53 H53            3.4621     7.8799    -2.4265 H       
  54 H54            6.8748     8.2141    -4.1172 H       
  55 H55            8.5085     9.6598    -2.5477 H       
  56 H56            7.3005     9.9920    -0.2457 H       
  57 H57            4.8469     7.8778     0.5025 H       
  58 H58            4.8248     9.6566     0.5609 H       
  59 H59            3.7019     8.7874    -0.5123 H       
@<TRIPOS>BOND
   1    1    2 ar
   2    1    6 ar
   3    1   36 1
   4    2    3 ar
   5    2   37 1
   6    3    4 ar
   7    3   27 1
   8    4    5 ar
   9    4   38 1
  10    5    7 1
  11    5    6 ar
  12    6   10 1
  13    7    8 1
  14    7   39 1
  15    8    9 1
  16    8   20 1
  17    8   19 1
  18    9   10 am
  19    9   11 1
  20   10   17 2
  21   11   12 ar
  22   11   16 ar
  23   12   13 ar
  24   12   40 1
  25   13   14 ar
  26   13   41 1
  27   14   15 ar
  28   14   18 1
  29   15   16 ar
  30   15   42 1
  31   16   43 1
  32   18   26 1
  33   19   23 1
  34   19   44 1
  35   19   45 1
  36   20   21 1
  37   20   46 1
  38   20   47 1
  39   21   22 1
  40   21   48 1
  41   21   49 1
  42   22   23 1
  43   22   24 1
  44   23   50 1
  45   23   51 1
  46   24   25 1
  47   24   52 1
  48   24   53 1
  49   25   31 2
  50   25   34 1
  51   26   28 1
  52   26   29 1
  53   26   30 1
  54   31   32 1
  55   31   54 1
  56   32   33 2
  57   32   55 1
  58   33   34 1
  59   33   56 1
  60   34   35 1
  61   35   57 1
  62   35   58 1
  63   35   59 1

#	End of record

