#	Name: ASD01940298
#	Creating user name:	WinNT
#	Creation time:	15. 06. 2019 20:12

#	Modifying user name:	WinNT
#	Modification time:	15. 06. 2019 20:12

#	Program:	/corina/corina34_cracker 3.40 0067  02.08.2006

@<TRIPOS>MOLECULE
ASD01940298
  38   39    0    0    0
SMALL
NO_CHARGES


@<TRIPOS>ATOM
   1 C1            -2.1829     0.8977     0.3268 C.3     
   2 C2            -1.1620    -0.2076     0.2415 C.ar    
   3 C3            -0.4124    -0.5430     1.3539 C.ar    
   4 C4             0.5266    -1.5576     1.2804 C.ar    
   5 C5             0.7198    -2.2416     0.0909 C.ar    
   6 C6            -0.0300    -1.9091    -1.0295 C.ar    
   7 C7            -0.9792    -0.8912    -0.9512 C.ar    
   8 N8            -1.7391    -0.5518    -2.0785 N.am    
   9 S9            -2.8188    -1.6387    -2.7072 S.o2    
  10 O10           -3.4452    -0.9350    -3.7710 O.2     
  11 O11           -2.0409    -2.8016    -2.9558 O.2     
  12 F12            1.2563    -1.8812     2.3704 F       
  13 F13            1.6373    -3.2308     0.0211 F       
  14 N14            0.1629    -2.5989    -2.2343 N.pl3   
  15 C15            0.1107    -3.9959    -2.2562 C.ar    
  16 C16            0.1649    -4.6771    -3.4683 C.ar    
  17 C17            0.0103    -4.7072    -1.0682 C.ar    
  18 C18           -0.0411    -6.0878    -1.0930 C.ar    
  19 C19            0.0076    -6.7621    -2.2988 C.ar    
  20 C20            0.1129    -6.0583    -3.4851 C.ar    
  21 F21            0.2677    -3.9897    -4.6268 F       
  22 C22           -0.0483    -8.2679    -2.3206 C.3     
  23 C23           -3.9970    -1.9369    -1.3605 C.3     
  24 H24           -1.7102     1.8487     0.0814 H       
  25 H25           -2.9910     0.7011    -0.3777 H       
  26 H26           -2.5859     0.9428     1.3386 H       
  27 H27           -0.5596    -0.0117     2.2827 H       
  28 H28           -1.6327     0.3198    -2.4907 H       
  29 H29            0.3326    -2.1071    -3.0530 H       
  30 H30           -0.0271    -4.1818    -0.1253 H       
  31 H31           -0.1192    -6.6410    -0.1687 H       
  32 H32            0.1507    -6.5883    -4.4254 H       
  33 H33           -1.0868    -8.5920    -2.3891 H       
  34 H34            0.5059    -8.6396    -3.1824 H       
  35 H35            0.3955    -8.6613    -1.4060 H       
  36 H36           -4.5207    -1.0106    -1.1241 H       
  37 H37           -4.7183    -2.6934    -1.6696 H       
  38 H38           -3.4599    -2.2858    -0.4785 H       
@<TRIPOS>BOND
   1    1    2 1
   2    1   24 1
   3    1   25 1
   4    1   26 1
   5    2    3 ar
   6    2    7 ar
   7    3    4 ar
   8    3   27 1
   9    4    5 ar
  10    4   12 1
  11    5    6 ar
  12    5   13 1
  13    6    7 ar
  14    6   14 1
  15    7    8 1
  16    8    9 am
  17    8   28 1
  18    9   10 2
  19    9   11 2
  20    9   23 1
  21   14   15 1
  22   14   29 1
  23   15   16 ar
  24   15   17 ar
  25   16   21 1
  26   16   20 ar
  27   17   18 ar
  28   17   30 1
  29   18   19 ar
  30   18   31 1
  31   19   20 ar
  32   19   22 1
  33   20   32 1
  34   22   33 1
  35   22   34 1
  36   22   35 1
  37   23   36 1
  38   23   37 1
  39   23   38 1

#	End of record

