#	Name: ASD01912925
#	Creating user name:	WinNT
#	Creation time:	15. 06. 2019 20:00

#	Modifying user name:	WinNT
#	Modification time:	15. 06. 2019 20:00

#	Program:	/corina/corina34_cracker 3.40 0067  02.08.2006

@<TRIPOS>MOLECULE
ASD01912925
  41   45    0    0    0
SMALL
NO_CHARGES


@<TRIPOS>ATOM
   1 C1            -0.0171     1.3638     0.0932 C.2     
   2 N2             0.0021    -0.0038    -0.0041 N.pl3   
   3 C3            -1.2011    -0.6881    -0.0821 C.2     
   4 C4            -2.3622    -0.0453    -0.0646 C.2     
   5 N5            -2.4355     1.3307     0.0320 N.am    
   6 C6            -1.3024     2.0630     0.1175 C.2     
   7 C7             1.3007     1.7778     0.1546 C.2     
   8 C8             2.0544     0.6073     0.0892 C.2     
   9 N9             1.2243    -0.4047    -0.0032 N.2     
  10 O10           -1.3500     3.2772     0.2033 O.2     
  11 C11           -3.6797     1.9646     0.0469 C.2     
  12 C12            3.5585     0.5193     0.1192 C.3     
  13 O13            4.1104     1.8331     0.2264 O.3     
  14 C14            5.4653     1.9317     0.2662 C.ar    
  15 C15            6.0685     3.1767     0.3698 C.ar    
  16 C16            7.4459     3.2744     0.4100 C.ar    
  17 C17            8.2232     2.1326     0.3471 C.ar    
  18 C18            7.6244     0.8907     0.2434 C.ar    
  19 C19            6.2473     0.7872     0.2090 C.ar    
  20 C20           -4.4350     2.2415     1.1465 C.2     
  21 N21           -4.3657     2.4286    -1.0350 N.pl3   
  22 C22           -5.5380     2.9786    -0.5654 C.2     
  23 N23           -5.5522     2.8516     0.7512 N.2     
  24 C24           -4.1154     2.4419    -2.3810 C.2     
  25 C25           -5.0157     2.9904    -3.2229 C.2     
  26 N26           -6.1536     3.5244    -2.7697 N.2     
  27 C27           -6.4416     3.5370    -1.4900 C.2     
  28 H28           -1.1935    -1.7653    -0.1589 H       
  29 H29           -3.2773    -0.6153    -0.1282 H       
  30 H30            1.6672     2.7905     0.2354 H       
  31 H31            3.8705    -0.0770     0.9766 H       
  32 H32            3.9134     0.0499    -0.7983 H       
  33 H33            5.4618     4.0689     0.4186 H       
  34 H34            7.9160     4.2434     0.4903 H       
  35 H35            9.2999     2.2110     0.3786 H       
  36 H36            8.2337     0.0004     0.1937 H       
  37 H37            5.7800    -0.1831     0.1280 H       
  38 H38           -4.1727     2.0056     2.1673 H       
  39 H39           -3.2013     2.0156    -2.7670 H       
  40 H40           -4.8126     2.9982    -4.2836 H       
  41 H41           -7.3675     3.9744    -1.1469 H       
@<TRIPOS>BOND
   1    1    2 1
   2    1    7 2
   3    1    6 1
   4    2    3 1
   5    2    9 1
   6    3    4 2
   7    3   28 1
   8    4    5 1
   9    4   29 1
  10    5    6 am
  11    5   11 1
  12    6   10 2
  13    7    8 1
  14    7   30 1
  15    8    9 2
  16    8   12 1
  17   11   21 1
  18   11   20 2
  19   12   13 1
  20   12   31 1
  21   12   32 1
  22   13   14 1
  23   14   15 ar
  24   14   19 ar
  25   15   16 ar
  26   15   33 1
  27   16   17 ar
  28   16   34 1
  29   17   18 ar
  30   17   35 1
  31   18   19 ar
  32   18   36 1
  33   19   37 1
  34   20   23 1
  35   20   38 1
  36   21   22 1
  37   21   24 1
  38   22   23 2
  39   22   27 1
  40   24   25 2
  41   24   39 1
  42   25   26 1
  43   25   40 1
  44   26   27 2
  45   27   41 1

#	End of record

