#	Name: ASD01411236
#	Creating user name:	WinNT
#	Creation time:	15. 06. 2019 19:19

#	Modifying user name:	WinNT
#	Modification time:	15. 06. 2019 19:19

#	Program:	/corina/corina34_cracker 3.40 0067  02.08.2006

@<TRIPOS>MOLECULE
ASD01411236
  71   74    0    0    0
SMALL
NO_CHARGES


@<TRIPOS>ATOM
   1 C1            -0.5938     2.3344    -0.5441 C.ar    
   2 C2            -0.4818     1.0023    -0.9241 C.ar    
   3 C3            -1.5529     0.1436    -0.7812 C.ar    
   4 C4            -2.7516     0.6061    -0.2564 C.ar    
   5 C5            -2.8712     1.9501     0.1291 C.ar    
   6 C6            -1.7794     2.8096    -0.0138 C.ar    
   7 O7             0.4675     3.1719    -0.6891 O.3     
   8 C8             0.8395     3.5161    -1.9464 C.ar    
   9 N9            -3.8334    -0.2614    -0.1132 N.am    
  10 C10           -4.0638    -0.8614     1.0714 C.2     
  11 C11           -3.2249    -0.5060     2.2718 C.3     
  12 O12           -4.9463    -1.6873     1.1714 O.2     
  13 C13           -4.0039    -0.8224     3.5501 C.3     
  14 C14           -1.9303    -1.3211     2.2486 C.3     
  15 C15           -1.0786    -0.9603     3.4674 C.3     
  16 C16           -1.8575    -1.2767     4.7456 C.3     
  17 C17           -3.1522    -0.4616     4.7689 C.3     
  18 C18           -1.0058    -0.9159     5.9644 C.3     
  19 C19            1.9913     4.2907    -2.1303 C.ar    
  20 C20            2.3782     4.6449    -3.3885 C.ar    
  21 C21            1.5924     4.2115    -4.4750 C.ar    
  22 C22            0.4384     3.4300    -4.2221 C.ar    
  23 N23            0.1124     3.1097    -2.9651 N.ar    
  24 C24            1.9315     4.5398    -5.7970 C.ar    
  25 C25            1.1476     4.1033    -6.8215 C.ar    
  26 C26            0.0120     3.3349    -6.5751 C.ar    
  27 C27           -0.3454     2.9977    -5.3058 C.ar    
  28 C28           -4.7197    -0.5209    -1.2504 C.3     
  29 C29           -4.6007     0.6217    -2.2610 C.3     
  30 C30           -4.3189    -1.8373    -1.9194 C.3     
  31 O31           -4.5204    -2.9169    -1.0052 O.3     
  32 C32           -4.1745    -4.1986    -1.5341 C.3     
  33 O33           -5.0999     1.8271    -1.6780 O.3     
  34 C34           -5.0340     2.9621    -2.5437 C.3     
  35 C35           -4.1402     2.4506     0.6875 C.2     
  36 O36           -5.1132     1.7241     0.7311 O.2     
  37 O37           -4.2212     3.7139     1.1495 O.3     
  38 H38            0.4484     0.6370    -1.3337 H       
  39 H39           -1.4581    -0.8902    -1.0788 H       
  40 H40           -1.8637     3.8453     0.2807 H       
  41 H41           -2.9855     0.5570     2.2459 H       
  42 H42           -4.9262    -0.2417     3.5667 H       
  43 H43           -4.2433    -1.8855     3.5760 H       
  44 H44           -2.1697    -2.3842     2.2745 H       
  45 H45           -1.3753    -1.0957     1.3379 H       
  46 H46           -0.1562    -1.5410     3.4508 H       
  47 H47           -0.8391     0.1028     3.4415 H       
  48 H48           -2.0969    -2.3397     4.7715 H       
  49 H49           -2.9127     0.6015     4.7430 H       
  50 H50           -3.7071    -0.6870     5.6795 H       
  51 H51           -0.7664     0.1472     5.9385 H       
  52 H52           -1.5608    -1.1412     6.8751 H       
  53 H53           -0.0835    -1.4965     5.9478 H       
  54 H54            2.5720     4.6074    -1.2765 H       
  55 H55            3.2637     5.2422    -3.5485 H       
  56 H56            2.8090     5.1355    -6.0005 H       
  57 H57            1.4095     4.3565    -7.8382 H       
  58 H58           -0.5939     3.0009    -7.4044 H       
  59 H59           -1.2289     2.4014    -5.1318 H       
  60 H60           -5.7495    -0.5903    -0.9000 H       
  61 H61           -3.5544     0.7568    -2.5351 H       
  62 H62           -5.1814     0.3811    -3.1515 H       
  63 H63           -4.9307    -1.9944    -2.8077 H       
  64 H64           -3.2679    -1.7944    -2.2051 H       
  65 H65           -4.7833    -4.4047    -2.4144 H       
  66 H66           -3.1205    -4.2047    -1.8117 H       
  67 H67           -4.3559    -4.9640    -0.7795 H       
  68 H68           -3.9967     3.1458    -2.8236 H       
  69 H69           -5.6237     2.7701    -3.4401 H       
  70 H70           -5.4313     3.8362    -2.0277 H       
  71 H71           -5.0742     3.9970     1.5063 H       
@<TRIPOS>BOND
   1    1    2 ar
   2    1    7 1
   3    1    6 ar
   4    2    3 ar
   5    2   38 1
   6    3    4 ar
   7    3   39 1
   8    4    5 ar
   9    4    9 1
  10    5    6 ar
  11    5   35 1
  12    6   40 1
  13    7    8 1
  14    8   19 ar
  15    8   23 ar
  16    9   10 am
  17    9   28 1
  18   10   11 1
  19   10   12 2
  20   11   13 1
  21   11   14 1
  22   11   41 1
  23   13   17 1
  24   13   42 1
  25   13   43 1
  26   14   15 1
  27   14   44 1
  28   14   45 1
  29   15   16 1
  30   15   46 1
  31   15   47 1
  32   16   17 1
  33   16   18 1
  34   16   48 1
  35   17   49 1
  36   17   50 1
  37   18   51 1
  38   18   52 1
  39   18   53 1
  40   19   20 ar
  41   19   54 1
  42   20   21 ar
  43   20   55 1
  44   21   22 ar
  45   21   24 ar
  46   22   23 ar
  47   22   27 ar
  48   24   25 ar
  49   24   56 1
  50   25   26 ar
  51   25   57 1
  52   26   27 ar
  53   26   58 1
  54   27   59 1
  55   28   29 1
  56   28   30 1
  57   28   60 1
  58   29   33 1
  59   29   61 1
  60   29   62 1
  61   30   31 1
  62   30   63 1
  63   30   64 1
  64   31   32 1
  65   32   65 1
  66   32   66 1
  67   32   67 1
  68   33   34 1
  69   34   68 1
  70   34   69 1
  71   34   70 1
  72   35   36 2
  73   35   37 1
  74   37   71 1

#	End of record

