#	Name: ASD01912456
#	Creating user name:	WinNT
#	Creation time:	15. 06. 2019 19:59

#	Modifying user name:	WinNT
#	Modification time:	15. 06. 2019 19:59

#	Program:	/corina/corina34_cracker 3.40 0067  02.08.2006

@<TRIPOS>MOLECULE
ASD01912456
  41   42    0    0    0
SMALL
NO_CHARGES


@<TRIPOS>ATOM
   1 C1            -0.0110     1.4094     0.0264 C.ar    
   2 C2             0.0062     0.0082     0.0137 C.ar    
   3 C3             1.2488    -0.6390    -0.0126 C.ar    
   4 N4             2.3498     0.0900    -0.0244 N.ar    
   5 C5             2.2901     1.4134    -0.0117 C.ar    
   6 N6             1.1360     2.0635     0.0131 N.ar    
   7 C7            -1.2134    -0.7422     0.0278 C.1     
   8 C8            -2.2133    -1.3574     0.0393 C.1     
   9 C9            -3.4329    -2.1078     0.0533 C.ar    
  10 C10           -3.3979    -3.5047     0.0404 C.ar    
  11 C11           -4.5766    -4.2207     0.0545 C.ar    
  12 C12           -5.7917    -3.5591     0.0810 C.ar    
  13 C13           -5.8342    -2.1760     0.0939 C.ar    
  14 C14           -4.6636    -1.4467     0.0859 C.ar    
  15 N15            3.4726     2.1410    -0.0249 N.am    
  16 C16            3.4352     3.4881    -0.0124 C.2     
  17 C17            4.7150     4.2766     0.0945 C.3     
  18 O18            2.3716     4.0658    -0.0871 O.2     
  19 C19            4.4077     5.7690    -0.0440 C.3     
  20 C20            5.3639     4.0136     1.4549 C.3     
  21 C21            5.6727     3.8476    -1.0189 C.3     
  22 C22            4.7611     1.4442    -0.0524 C.3     
  23 H23           -0.9481     1.9461     0.0422 H       
  24 H24            1.3053    -1.7175    -0.0227 H       
  25 H25           -2.4503    -4.0223     0.0190 H       
  26 H26           -4.5512    -5.3003     0.0446 H       
  27 H27           -6.7115    -4.1250     0.0913 H       
  28 H28           -6.7862    -1.6665     0.1142 H       
  29 H29           -4.6982    -0.3673     0.0959 H       
  30 H30            3.7254     6.0746     0.7492 H       
  31 H31            5.3334     6.3393     0.0333 H       
  32 H32            3.9454     5.9563    -1.0132 H       
  33 H33            5.6629     2.9674     1.5186 H       
  34 H34            6.2417     4.6499     1.5678 H       
  35 H35            4.6494     4.2363     2.2474 H       
  36 H36            5.2104     4.0350    -1.9881 H       
  37 H37            6.5984     4.4179    -0.9416 H       
  38 H38            5.8917     2.7844    -0.9202 H       
  39 H39            5.0209     1.2014    -1.0828 H       
  40 H40            5.5309     2.0870     0.3746 H       
  41 H41            4.6901     0.5259     0.5304 H       
@<TRIPOS>BOND
   1    1    2 ar
   2    1    6 ar
   3    1   23 1
   4    2    3 ar
   5    2    7 1
   6    3    4 ar
   7    3   24 1
   8    4    5 ar
   9    5    6 ar
  10    5   15 1
  11    7    8 3
  12    8    9 1
  13    9   10 ar
  14    9   14 ar
  15   10   11 ar
  16   10   25 1
  17   11   12 ar
  18   11   26 1
  19   12   13 ar
  20   12   27 1
  21   13   14 ar
  22   13   28 1
  23   14   29 1
  24   15   16 am
  25   15   22 1
  26   16   17 1
  27   16   18 2
  28   17   19 1
  29   17   20 1
  30   17   21 1
  31   19   30 1
  32   19   31 1
  33   19   32 1
  34   20   33 1
  35   20   34 1
  36   20   35 1
  37   21   36 1
  38   21   37 1
  39   21   38 1
  40   22   39 1
  41   22   40 1
  42   22   41 1

#	End of record

