#	Name: ASD01860002
#	Creating user name:	WinNT
#	Creation time:	15. 06. 2019 19:38

#	Modifying user name:	WinNT
#	Modification time:	15. 06. 2019 19:38

#	Program:	/corina/corina34_cracker 3.40 0067  02.08.2006

@<TRIPOS>MOLECULE
ASD01860002
  29   28    0    0    0
SMALL
NO_CHARGES


@<TRIPOS>ATOM
   1 C1            -0.0184     1.5028     0.0103 C.2     
   2 C2             0.0021    -0.0041     0.0020 C.3     
   3 O3             1.3516    -0.4627     0.1041 O.3     
   4 C4            -0.6130    -0.5153    -1.3023 C.3     
   5 O5             0.0701     0.0699    -2.4126 O.3     
   6 C6            -0.4797    -2.0381    -1.3665 C.3     
   7 O7             0.8919    -2.4036    -1.2017 O.3     
   8 C8            -0.9810    -2.5372    -2.7232 C.3     
   9 O9            -2.3527    -2.1717    -2.8880 O.3     
  10 C10           -0.8477    -4.0600    -2.7874 C.3     
  11 O11           -1.2058    -4.5148    -4.0939 O.3     
  12 O12            1.0291     2.1267     0.0037 O.co2   
  13 O13           -1.0824     2.0980     0.0186 O.co2   
  14 P14           -1.1811    -6.0674    -4.5193 P.3     
  15 O15            0.1606    -6.6313    -4.2505 O.2     
  16 O16           -2.2832    -6.8748    -3.6674 O.3     
  17 O17           -1.5140    -6.1991    -6.0890 O.3     
  18 H18           -0.5743    -0.3799     0.8474 H       
  19 H19            1.9236    -0.1656    -0.6168 H       
  20 H20           -1.6673    -0.2410    -1.3388 H       
  21 H21            1.0151    -0.1327    -2.4441 H       
  22 H22           -1.0738    -2.4887    -0.5715 H       
  23 H23            1.4803    -2.0369    -1.8759 H       
  24 H24           -0.3869    -2.0866    -3.5182 H       
  25 H25           -2.9411    -2.5383    -2.2139 H       
  26 H26            0.1827    -4.3439    -2.5736 H       
  27 H27           -1.5101    -4.5141    -2.0504 H       
  28 H28           -3.1880    -6.5584    -3.7948 H       
  29 H29           -1.5163    -7.1093    -6.4155 H       
@<TRIPOS>BOND
   1    1    2 1
   2    1   12 ar
   3    1   13 ar
   4    2    3 1
   5    2    4 1
   6    2   18 1
   7    3   19 1
   8    4    5 1
   9    4    6 1
  10    4   20 1
  11    5   21 1
  12    6    7 1
  13    6    8 1
  14    6   22 1
  15    7   23 1
  16    8    9 1
  17    8   10 1
  18    8   24 1
  19    9   25 1
  20   10   11 1
  21   10   26 1
  22   10   27 1
  23   11   14 1
  24   14   15 2
  25   14   16 1
  26   14   17 1
  27   16   28 1
  28   17   29 1

#	End of record

