#	Name: ASD01883114
#	Creating user name:	WinNT
#	Creation time:	15. 06. 2019 19:45

#	Modifying user name:	WinNT
#	Modification time:	15. 06. 2019 19:45

#	Program:	/corina/corina34_cracker 3.40 0067  02.08.2006

@<TRIPOS>MOLECULE
ASD01883114
  48   50    0    0    0
SMALL
NO_CHARGES


@<TRIPOS>ATOM
   1 N1            -0.0673     1.2363     1.3204 N.am    
   2 C2            -0.0322    -0.0384     0.8899 C.2     
   3 C3            -1.2413    -0.7417     0.6644 C.2     
   4 C4            -2.4601    -0.0809     0.8991 C.2     
   5 C5            -2.4302     1.2538     1.3492 C.2     
   6 C6            -1.2447     1.8719     1.5517 C.2     
   7 O7             1.0388    -0.5872     0.6940 O.2     
   8 C8            -1.2224    -2.0982     0.2060 C.1     
   9 N9            -1.2075    -3.1743    -0.1576 N.1     
  10 C10            1.1909     1.9509     1.5498 C.3     
  11 C11            1.6162     2.6608     0.2630 C.3     
  12 C12            2.9302     3.4071     0.5026 C.3     
  13 C13            3.3555     4.1170    -0.7843 C.3     
  14 C14           -3.7469    -0.7727     0.6777 C.ar    
  15 C15           -4.5980    -1.0303     1.7551 C.ar    
  16 C16           -5.7967    -1.6754     1.5446 C.ar    
  17 C17           -6.1596    -2.0703     0.2625 C.ar    
  18 C18           -5.3154    -1.8162    -0.8119 C.ar    
  19 C19           -4.1182    -1.1656    -0.6106 C.ar    
  20 O20           -7.3417    -2.7063     0.0591 O.3     
  21 C21           -8.4762    -1.9623     0.0742 C.ar    
  22 C22           -9.7115    -2.5897    -0.0223 C.ar    
  23 C23          -10.8613    -1.8192    -0.0052 C.ar    
  24 C24          -10.7336    -0.4419     0.1084 C.ar    
  25 C25           -9.4729     0.1144     0.2002 C.ar    
  26 N26           -8.3953    -0.6466     0.1862 N.ar    
  27 C27           -9.3264     1.6092     0.3233 C.3     
  28 F28           -9.3313     1.9685     1.6754 F       
  29 F29           -8.1200     2.0093    -0.2612 F       
  30 F30          -10.3921     2.2375    -0.3300 F       
  31 H31           -3.3537     1.7817     1.5359 H       
  32 H32           -1.2342     2.8952     1.8968 H       
  33 H33            1.0516     2.6868     2.3417 H       
  34 H34            1.9633     1.2409     1.8454 H       
  35 H35            1.7555     1.9249    -0.5290 H       
  36 H36            0.8438     3.3708    -0.0326 H       
  37 H37            2.7909     4.1430     1.2945 H       
  38 H38            3.7026     2.6971     0.7982 H       
  39 H39            2.5831     4.8270    -1.0799 H       
  40 H40            4.2916     4.6487    -0.6136 H       
  41 H41            3.4948     3.3811    -1.5762 H       
  42 H42           -4.3164    -0.7244     2.7519 H       
  43 H43           -6.4552    -1.8749     2.3771 H       
  44 H44           -5.6008    -2.1249    -1.8068 H       
  45 H45           -3.4628    -0.9682    -1.4460 H       
  46 H46           -9.7741    -3.6643    -0.1099 H       
  47 H47          -11.8356    -2.2793    -0.0789 H       
  48 H48          -11.6106     0.1881     0.1244 H       
@<TRIPOS>BOND
   1    1    2 am
   2    1   10 1
   3    1    6 1
   4    2    3 1
   5    2    7 2
   6    3    4 2
   7    3    8 1
   8    4    5 1
   9    4   14 1
  10    5    6 2
  11    5   31 1
  12    6   32 1
  13    8    9 3
  14   10   11 1
  15   10   33 1
  16   10   34 1
  17   11   12 1
  18   11   35 1
  19   11   36 1
  20   12   13 1
  21   12   37 1
  22   12   38 1
  23   13   39 1
  24   13   40 1
  25   13   41 1
  26   14   15 ar
  27   14   19 ar
  28   15   16 ar
  29   15   42 1
  30   16   17 ar
  31   16   43 1
  32   17   18 ar
  33   17   20 1
  34   18   19 ar
  35   18   44 1
  36   19   45 1
  37   20   21 1
  38   21   22 ar
  39   21   26 ar
  40   22   23 ar
  41   22   46 1
  42   23   24 ar
  43   23   47 1
  44   24   25 ar
  45   24   48 1
  46   25   26 ar
  47   25   27 1
  48   27   28 1
  49   27   29 1
  50   27   30 1

#	End of record

