#	Name: ASD03240981
#	Creating user name:	WinNT
#	Creation time:	15. 06. 2019 20:35

#	Modifying user name:	WinNT
#	Modification time:	15. 06. 2019 20:35

#	Program:	/corina/corina34_cracker 3.40 0067  02.08.2006

@<TRIPOS>MOLECULE
ASD03240981
  62   67    0    0    0
SMALL
NO_CHARGES


@<TRIPOS>ATOM
   1 C1             0.0808     0.8623    -1.7514 C.3     
   2 C2             1.3600     0.1792    -2.2632 C.3     
   3 C3             1.9903     0.5154    -0.9014 C.3     
   4 C4             0.5623     0.5231    -0.3308 C.3     
   5 O5             0.0341     2.2649    -2.0203 O.3     
   6 C6            -1.2045     0.1357    -2.1526 C.3     
   7 C7             2.8556    -0.5873    -0.3479 C.ar    
   8 C8             3.9319    -0.2767     0.4640 C.ar    
   9 C9             4.7276    -1.2819     0.9742 C.ar    
  10 C10            4.4449    -2.6135     0.6698 C.ar    
  11 C11            3.3582    -2.9202    -0.1493 C.ar    
  12 C12            2.5669    -1.9064    -0.6491 C.ar    
  13 N13            6.8265    -6.7055     0.0249 N.pl3   
  14 C14            7.6120    -7.7169     0.5076 C.2     
  15 N15            8.0256    -7.7498     1.7868 N.2     
  16 C16            7.7015    -6.8171     2.6448 C.2     
  17 C17            6.8642    -5.7044     2.2016 C.ar    
  18 C18            6.4842    -4.6775     3.0724 C.ar    
  19 C19            5.6849    -3.6572     2.5669 C.ar    
  20 C20            5.2951    -3.6971     1.2137 C.ar    
  21 N21            5.6750    -4.6864     0.4191 N.ar    
  22 C22            6.4330    -5.6760     0.8584 C.ar    
  23 C23            7.8364    -8.5884    -0.5496 C.2     
  24 C24            7.1759    -8.0824    -1.6621 C.2     
  25 N25            6.5711    -6.9682    -1.3264 N.2     
  26 C26            7.1539    -8.7135    -3.0304 C.3     
  27 C27            5.2495    -2.5421     3.4407 C.ar    
  28 C28            3.8997    -2.4007     3.7797 C.ar    
  29 C29            3.5019    -1.3557     4.5973 C.ar    
  30 C30            4.4364    -0.4565     5.0760 C.ar    
  31 C31            5.7721    -0.5933     4.7423 C.ar    
  32 C32            6.1835    -1.6332     3.9331 C.ar    
  33 O33            2.9822    -3.2847     3.3083 O.3     
  34 C34            1.6226    -3.0774     3.6961 C.3     
  35 N35            2.6458     1.8296    -0.8647 N.3     
  36 H36            1.2437    -0.8903    -2.4384 H       
  37 H37            1.8270     0.6980    -3.1004 H       
  38 H38            0.3852     1.3196     0.3920 H       
  39 H39            0.2279    -0.4524     0.0223 H       
  40 H40           -0.7682     2.7001    -1.7008 H       
  41 H41           -1.1916    -0.8761    -1.7474 H       
  42 H42           -2.0652     0.6747    -1.7568 H       
  43 H43           -1.2723     0.0909    -3.2396 H       
  44 H44            4.1500     0.7547     0.6986 H       
  45 H45            5.5677    -1.0381     1.6075 H       
  46 H46            3.1344    -3.9493    -0.3885 H       
  47 H47            1.7229    -2.1428    -1.2801 H       
  48 H48            8.0475    -6.8689     3.6666 H       
  49 H49            6.8007    -4.6772     4.1050 H       
  50 H50            8.4196    -9.4967    -0.5137 H       
  51 H51            6.3072    -9.3962    -3.1020 H       
  52 H52            7.0585    -7.9356    -3.7879 H       
  53 H53            8.0801    -9.2654    -3.1909 H       
  54 H54            2.4606    -1.2432     4.8608 H       
  55 H55            4.1223     0.3569     5.7133 H       
  56 H56            6.4961     0.1137     5.1197 H       
  57 H57            7.2276    -1.7394     3.6783 H       
  58 H58            0.9961    -3.8512     3.2524 H       
  59 H59            1.5434    -3.1243     4.7822 H       
  60 H60            1.2911    -2.0986     3.3496 H       
  61 H61            3.0447     2.0094     0.0445 H       
  62 H62            3.3453     1.9050    -1.5879 H       
@<TRIPOS>BOND
   1    1    2 1
   2    1    4 1
   3    1    5 1
   4    1    6 1
   5    2    3 1
   6    2   36 1
   7    2   37 1
   8    3    4 1
   9    3    7 1
  10    3   35 1
  11    4   38 1
  12    4   39 1
  13    5   40 1
  14    6   41 1
  15    6   42 1
  16    6   43 1
  17    7    8 ar
  18    7   12 ar
  19    8    9 ar
  20    8   44 1
  21    9   10 ar
  22    9   45 1
  23   10   11 ar
  24   10   20 1
  25   11   12 ar
  26   11   46 1
  27   12   47 1
  28   13   14 1
  29   13   22 1
  30   13   25 1
  31   14   15 1
  32   14   23 2
  33   15   16 2
  34   16   17 1
  35   16   48 1
  36   17   18 ar
  37   17   22 ar
  38   18   19 ar
  39   18   49 1
  40   19   20 ar
  41   19   27 1
  42   20   21 ar
  43   21   22 ar
  44   23   24 1
  45   23   50 1
  46   24   25 2
  47   24   26 1
  48   26   51 1
  49   26   52 1
  50   26   53 1
  51   27   28 ar
  52   27   32 ar
  53   28   29 ar
  54   28   33 1
  55   29   30 ar
  56   29   54 1
  57   30   31 ar
  58   30   55 1
  59   31   32 ar
  60   31   56 1
  61   32   57 1
  62   33   34 1
  63   34   58 1
  64   34   59 1
  65   34   60 1
  66   35   61 1
  67   35   62 1

#	End of record

