#	Name: ASD03090047
#	Creating user name:	WinNT
#	Creation time:	15. 06. 2019 20:28

#	Modifying user name:	WinNT
#	Modification time:	15. 06. 2019 20:28

#	Program:	/corina/corina34_cracker 3.40 0067  02.08.2006

@<TRIPOS>MOLECULE
ASD03090047
  38   40    0    0    0
SMALL
NO_CHARGES


@<TRIPOS>ATOM
   1 N1            -0.0162     1.3436     0.0094 N.am    
   2 C2            -0.2146     0.1139    -0.5054 C.2     
   3 O3             0.6735    -0.4347    -1.1288 O.2     
   4 N4            -1.3974    -0.5077    -0.3292 N.am    
   5 O5            -0.7230    -2.5021    -1.5654 O.3     
   6 N6            -1.1928    -3.5672    -1.8918 N.2     
   7 C7            -2.4170    -3.7074    -1.4671 C.2     
   8 C8            -2.7364    -2.5266    -0.7671 C.2     
   9 C9            -1.6015    -1.7731    -0.8590 C.2     
  10 C10           -3.3150    -4.8983    -1.6827 C.3     
  11 F11           -2.5979    -5.9127    -2.3261 F       
  12 F12           -3.7757    -5.3648    -0.4468 F       
  13 F13           -4.4051    -4.5230    -2.4752 F       
  14 C14            1.2478     1.9392    -0.0684 C.ar    
  15 C15            1.3621     3.3279    -0.2204 C.ar    
  16 C16            2.6260     3.9129    -0.2965 C.ar    
  17 C17            3.7584     3.1199    -0.2217 C.ar    
  18 C18            3.6388     1.7450    -0.0712 C.ar    
  19 C19            2.3900     1.1582     0.0104 C.ar    
  20 O20            4.9910     3.6891    -0.2963 O.3     
  21 C21            6.1165     2.8127    -0.2123 C.3     
  22 O22           -0.9076     3.9553    -1.1068 O.3     
  23 C23            0.1497     4.1679    -0.3000 C.2     
  24 C24           -0.0929     5.2903     0.4286 C.2     
  25 C25           -1.3591     5.7659     0.0321 C.2     
  26 C26           -1.8217     4.9197    -0.9085 C.2     
  27 H27           -0.7505     1.8173     0.4304 H       
  28 H28           -2.1059    -0.0700     0.1681 H       
  29 H29           -3.6636    -2.2759    -0.2731 H       
  30 H30            2.7211     4.9822    -0.4140 H       
  31 H31            4.5257     1.1315    -0.0134 H       
  32 H32            2.3041     0.0885     0.1316 H       
  33 H33            6.0952     2.2842     0.7407 H       
  34 H34            6.0771     2.0914    -1.0287 H       
  35 H35            7.0358     3.3938    -0.2850 H       
  36 H36            0.5586     5.7316     1.1683 H       
  37 H37           -1.8631     6.6428     0.4108 H       
  38 H38           -2.7702     5.0026    -1.4183 H       
@<TRIPOS>BOND
   1    1    2 am
   2    1   14 1
   3    1   27 1
   4    2    3 2
   5    2    4 am
   6    4    9 1
   7    4   28 1
   8    5    6 1
   9    5    9 1
  10    6    7 2
  11    7    8 1
  12    7   10 1
  13    8    9 2
  14    8   29 1
  15   10   11 1
  16   10   12 1
  17   10   13 1
  18   14   15 ar
  19   14   19 ar
  20   15   16 ar
  21   15   23 1
  22   16   17 ar
  23   16   30 1
  24   17   18 ar
  25   17   20 1
  26   18   19 ar
  27   18   31 1
  28   19   32 1
  29   20   21 1
  30   21   33 1
  31   21   34 1
  32   21   35 1
  33   22   23 1
  34   22   26 1
  35   23   24 2
  36   24   25 1
  37   24   36 1
  38   25   26 2
  39   25   37 1
  40   26   38 1

#	End of record

