#	Name: ASD07301343
#	Creating user name:	WinNT
#	Creation time:	15. 06. 2019 21:11

#	Modifying user name:	WinNT
#	Modification time:	15. 06. 2019 21:11

#	Program:	/corina/corina34_cracker 3.40 0067  02.08.2006

@<TRIPOS>MOLECULE
ASD07301343
  28   28    0    0    0
SMALL
NO_CHARGES


@<TRIPOS>ATOM
   1 C1            -0.5382     0.5496     1.2999 C.3     
   2 C2             0.0024    -0.0038     0.0067 C.2     
   3 C3             1.3293    -0.6209    -0.0274 C.2     
   4 C4             1.4658    -2.0713     0.1150 C.2     
   5 C5             2.8319    -2.7066     0.0800 C.3     
   6 O6            -0.6623     0.0622    -1.0065 O.2     
   7 O7             0.4789    -2.7622     0.2614 O.2     
   8 N8             2.4057     0.1326    -0.1870 N.2     
   9 N9             2.2805     1.3960    -0.4155 N.pl3   
  10 C10            3.4079     2.1704    -0.6885 C.ar    
  11 C11            3.2744     3.5312    -0.9347 C.ar    
  12 C12            4.3971     4.2968    -1.2050 C.ar    
  13 C13            5.6519     3.7032    -1.2292 C.ar    
  14 C14            5.7834     2.3495    -0.9840 C.ar    
  15 C15            4.6678     1.5830    -0.7089 C.ar    
  16 O16            4.2701     5.6280    -1.4468 O.3     
  17 H17            0.1545     0.3222     2.1102 H       
  18 H18           -0.6534     1.6300     1.2128 H       
  19 H19           -1.5068     0.0969     1.5121 H       
  20 H20            3.5884    -1.9341    -0.0577 H       
  21 H21            3.0135    -3.2297     1.0188 H       
  22 H22            2.8818    -3.4155    -0.7465 H       
  23 H23            1.4022     1.8074    -0.3975 H       
  24 H24            2.2975     3.9913    -0.9159 H       
  25 H25            6.5268     4.3003    -1.4402 H       
  26 H26            6.7610     1.8908    -1.0035 H       
  27 H27            4.7738     0.5261    -0.5136 H       
  28 H28            4.3280     6.1790    -0.6542 H       
@<TRIPOS>BOND
   1    1    2 1
   2    1   17 1
   3    1   18 1
   4    1   19 1
   5    2    3 1
   6    2    6 2
   7    3    4 1
   8    3    8 2
   9    4    5 1
  10    4    7 2
  11    5   20 1
  12    5   21 1
  13    5   22 1
  14    8    9 1
  15    9   10 1
  16    9   23 1
  17   10   11 ar
  18   10   15 ar
  19   11   12 ar
  20   11   24 1
  21   12   13 ar
  22   12   16 1
  23   13   14 ar
  24   13   25 1
  25   14   15 ar
  26   14   26 1
  27   15   27 1
  28   16   28 1

#	End of record

