#	Name: ASD03331406
#	Creating user name:	WinNT
#	Creation time:	15. 06. 2019 20:39

#	Modifying user name:	WinNT
#	Modification time:	15. 06. 2019 20:39

#	Program:	/corina/corina34_cracker 3.40 0067  02.08.2006

@<TRIPOS>MOLECULE
ASD03331406
  71   75    0    0    0
SMALL
NO_CHARGES


@<TRIPOS>ATOM
   1 N1            -0.5849     1.8544    -1.1434 N.am    
   2 C2            -0.3487     0.4249    -1.3869 C.3     
   3 C3            -0.7947     0.0874    -2.8131 C.3     
   4 C4            -0.0853     1.0186    -3.7989 C.3     
   5 C5            -0.4726     2.4691    -3.5022 C.3     
   6 C6            -0.0230     2.8335    -2.0838 C.3     
   7 C7             1.4064     0.8580    -3.6565 C.2     
   8 O8             2.1049     1.8299    -3.4607 O.2     
   9 N9             1.9641    -0.3656    -3.7466 N.am    
  10 C10           -1.3078     2.2597    -0.0806 C.2     
  11 O11           -1.8519     1.4391     0.6335 O.2     
  12 N12           -2.2968     5.6696     0.7395 N.pl3   
  13 C13           -2.6008     4.3633     0.5421 C.2     
  14 C14           -1.4392     3.6965     0.2162 C.2     
  15 C15           -0.3937     4.6562     0.2206 C.2     
  16 C16           -0.9479     5.8525     0.5438 C.2     
  17 C17           -3.9710     3.7470     0.6587 C.3     
  18 C18           -4.6737     3.8052    -0.6992 C.3     
  19 C19           -6.0648     3.1794    -0.5808 C.3     
  20 O20           -6.7211     3.2338    -1.8491 O.3     
  21 C21           -0.2233     7.1359     0.6654 C.ar    
  22 C22            0.9385     7.2149     1.4367 C.ar    
  23 C23            1.6104     8.4158     1.5457 C.ar    
  24 C24            1.1344     9.5400     0.8922 C.ar    
  25 C25           -0.0169     9.4673     0.1268 C.ar    
  26 C26           -0.6942     8.2713     0.0054 C.ar    
  27 Cl27           1.9846    11.0469     1.0338 Cl      
  28 Cl28           1.5357     5.8062     2.2569 Cl      
  29 C29           -3.2119     6.6742     1.0823 C.ar    
  30 C30           -3.1578     7.2651     2.3376 C.ar    
  31 C31           -4.0604     8.2552     2.6729 C.ar    
  32 C32           -5.0181     8.6584     1.7590 C.ar    
  33 C33           -5.0744     8.0706     0.5074 C.ar    
  34 C34           -4.1704     7.0841     0.1653 C.ar    
  35 Cl35          -6.1512     9.9032     2.1835 Cl      
  36 C36           -0.4957     0.6671    -5.2057 C.ar    
  37 C37           -0.0511     1.4332    -6.2670 C.ar    
  38 C38           -0.4271     1.1113    -7.5575 C.ar    
  39 C39           -1.2488     0.0221    -7.7869 C.ar    
  40 C40           -1.6935    -0.7443    -6.7244 C.ar    
  41 C41           -1.3121    -0.4248    -5.4348 C.ar    
  42 Cl42          -1.7221    -0.3825    -9.4074 Cl      
  43 H43            0.7130     0.2056    -1.2745 H       
  44 H44           -0.9236    -0.1670    -0.6746 H       
  45 H45           -0.5368    -0.9471    -3.0398 H       
  46 H46           -1.8731     0.2210    -2.8983 H       
  47 H47            0.0146     3.1297    -4.2193 H       
  48 H48           -1.5541     2.5802    -3.5808 H       
  49 H49           -0.3829     3.8309    -1.8313 H       
  50 H50            1.0654     2.8106    -2.0283 H       
  51 H51            1.4158    -1.1330    -3.9730 H       
  52 H52            2.9139    -0.4788    -3.5851 H       
  53 H53            0.6483     4.4696     0.0066 H       
  54 H54           -3.8765     2.7080     0.9746 H       
  55 H55           -4.5562     4.2986     1.3945 H       
  56 H56           -4.7682     4.8441    -1.0151 H       
  57 H57           -4.0886     3.2535    -1.4350 H       
  58 H58           -5.9703     2.1405    -0.2649 H       
  59 H59           -6.6500     3.7311     0.1550 H       
  60 H60           -7.6102     2.8537    -1.8484 H       
  61 H61            2.5086     8.4788     2.1420 H       
  62 H62           -0.3833    10.3477    -0.3802 H       
  63 H63           -1.5895     8.2152    -0.5960 H       
  64 H64           -2.4107     6.9506     3.0513 H       
  65 H65           -4.0189     8.7150     3.6493 H       
  66 H66           -5.8229     8.3868    -0.2040 H       
  67 H67           -4.2116     6.6291    -0.8133 H       
  68 H68            0.5900     2.2836    -6.0877 H       
  69 H69           -0.0800     1.7101    -8.3865 H       
  70 H70           -2.3349    -1.5947    -6.9029 H       
  71 H71           -1.6556    -1.0255    -4.6057 H       
@<TRIPOS>BOND
   1    1    2 1
   2    1    6 1
   3    1   10 am
   4    2    3 1
   5    2   43 1
   6    2   44 1
   7    3    4 1
   8    3   45 1
   9    3   46 1
  10    4    5 1
  11    4    7 1
  12    4   36 1
  13    5    6 1
  14    5   47 1
  15    5   48 1
  16    6   49 1
  17    6   50 1
  18    7    8 2
  19    7    9 am
  20    9   51 1
  21    9   52 1
  22   10   11 2
  23   10   14 1
  24   12   13 1
  25   12   16 1
  26   12   29 1
  27   13   14 2
  28   13   17 1
  29   14   15 1
  30   15   16 2
  31   15   53 1
  32   16   21 1
  33   17   18 1
  34   17   54 1
  35   17   55 1
  36   18   19 1
  37   18   56 1
  38   18   57 1
  39   19   20 1
  40   19   58 1
  41   19   59 1
  42   20   60 1
  43   21   22 ar
  44   21   26 ar
  45   22   23 ar
  46   22   28 1
  47   23   24 ar
  48   23   61 1
  49   24   25 ar
  50   24   27 1
  51   25   26 ar
  52   25   62 1
  53   26   63 1
  54   29   30 ar
  55   29   34 ar
  56   30   31 ar
  57   30   64 1
  58   31   32 ar
  59   31   65 1
  60   32   33 ar
  61   32   35 1
  62   33   34 ar
  63   33   66 1
  64   34   67 1
  65   36   37 ar
  66   36   41 ar
  67   37   38 ar
  68   37   68 1
  69   38   39 ar
  70   38   69 1
  71   39   40 ar
  72   39   42 1
  73   40   41 ar
  74   40   70 1
  75   41   71 1

#	End of record

