#	Name: ASD03930084
#	Creating user name:	WinNT
#	Creation time:	15. 06. 2019 20:47

#	Modifying user name:	WinNT
#	Modification time:	15. 06. 2019 20:47

#	Program:	/corina/corina34_cracker 3.40 0067  02.08.2006

@<TRIPOS>MOLECULE
ASD03930084
  36   37    0    0    0
SMALL
NO_CHARGES


@<TRIPOS>ATOM
   1 C1             0.5026     1.3681    -0.9563 C.ar    
   2 C2             0.5162    -0.0110    -0.9329 C.ar    
   3 C3             1.2015    -0.6824     0.0643 C.ar    
   4 C4             1.8771     0.0235     1.0436 C.ar    
   5 C5             1.8711     1.4032     1.0320 C.ar    
   6 C6             1.1823     2.0865     0.0289 C.ar    
   7 C7             1.1720     3.5648     0.0100 C.2     
   8 O8             0.1192     4.1640    -0.0910 O.2     
   9 N9             2.3299     4.2480     0.1048 N.am    
  10 C10            3.6014     3.5412     0.3105 C.3     
  11 C11            4.7092     5.5007    -0.7725 C.3     
  12 C12            3.3443     6.1180    -1.0903 C.3     
  13 C13            2.3453     5.7133    -0.0017 C.3     
  14 C14           -0.2174    -0.7882    -1.9954 C.3     
  15 C15            4.5884     3.9750    -0.7779 C.3     
  16 O16            0.6602    -1.0360    -3.0956 O.3     
  17 C17            0.0597    -1.7709    -4.1640 C.3     
  18 H18           -0.0289     1.8909    -1.7377 H       
  19 H19            1.2087    -1.7623     0.0783 H       
  20 H20            2.4100    -0.5065     1.8192 H       
  21 H21            2.3983     1.9532     1.7976 H       
  22 H22            4.0050     3.7931     1.2912 H       
  23 H23            3.4362     2.4657     0.2463 H       
  24 H24            5.4309     5.8052    -1.5306 H       
  25 H25            5.0442     5.8442     0.2062 H       
  26 H26            3.4321     7.2043    -1.1103 H       
  27 H27            3.0014     5.7623    -2.0619 H       
  28 H28            1.3505     6.0709    -0.2675 H       
  29 H29            2.6487     6.1458     0.9517 H       
  30 H30           -0.5579    -1.7373    -1.5814 H       
  31 H31           -1.0768    -0.2124    -2.3386 H       
  32 H32            5.5647     3.5321    -0.5812 H       
  33 H33            4.2266     3.6422    -1.7507 H       
  34 H34            0.7901    -1.9174    -4.9597 H       
  35 H35           -0.2751    -2.7403    -3.7950 H       
  36 H36           -0.7940    -1.2154    -4.5522 H       
@<TRIPOS>BOND
   1    1    2 ar
   2    1    6 ar
   3    1   18 1
   4    2    3 ar
   5    2   14 1
   6    3    4 ar
   7    3   19 1
   8    4    5 ar
   9    4   20 1
  10    5    6 ar
  11    5   21 1
  12    6    7 1
  13    7    8 2
  14    7    9 am
  15    9   10 1
  16    9   13 1
  17   10   15 1
  18   10   22 1
  19   10   23 1
  20   11   12 1
  21   11   15 1
  22   11   24 1
  23   11   25 1
  24   12   13 1
  25   12   26 1
  26   12   27 1
  27   13   28 1
  28   13   29 1
  29   14   16 1
  30   14   30 1
  31   14   31 1
  32   15   32 1
  33   15   33 1
  34   16   17 1
  35   17   34 1
  36   17   35 1
  37   17   36 1

#	End of record

