#	Name: ASD00843576
#	Creating user name:	WinNT
#	Creation time:	15. 06. 2019 18:47

#	Modifying user name:	WinNT
#	Modification time:	15. 06. 2019 18:47

#	Program:	/corina/corina34_cracker 3.40 0067  02.08.2006

@<TRIPOS>MOLECULE
ASD00843576
  89   94    0    0    0
SMALL
NO_CHARGES


@<TRIPOS>ATOM
   1 F1             5.6253    -2.3033    -2.2133 F       
   2 N2             0.7671     1.1936    -0.6753 N.ar    
   3 C3             0.9780    -0.0977    -0.8678 C.ar    
   4 C4             0.8726    -0.9968     0.1860 C.ar    
   5 C5             0.5430    -0.5240     1.4440 C.ar    
   6 C6             0.3296     0.8384     1.6044 C.ar    
   7 C7             0.4515     1.6742     0.5125 C.ar    
   8 C8             1.1133    -2.4675    -0.0382 C.3     
   9 C9             0.8076    -3.2524     1.2194 C.2     
  10 C10            0.2662    -2.9759    -1.2064 C.3     
  11 C11           -1.1815    -2.6355    -0.9626 C.2     
  12 N12           -2.1256    -3.0440    -1.8333 N.am    
  13 O13           -1.4969    -1.9940     0.0171 O.2     
  14 C14           -3.5237    -2.6210    -1.6745 C.3     
  15 C15           -4.4166    -3.8657    -1.6580 C.3     
  16 C16           -4.1502    -4.6965    -2.9154 C.3     
  17 C17           -2.6888    -5.1505    -2.9287 C.3     
  18 C18           -1.7753    -3.9158    -2.9629 C.3     
  19 C19           -5.0650    -5.9228    -2.9193 C.3     
  20 C20           -6.5277    -5.4702    -2.9077 C.3     
  21 C21           -7.4375    -6.6990    -2.9732 C.3     
  22 N22           -7.1508    -7.4571    -4.1977 N.3     
  23 C23           -5.7650    -7.9427    -4.2094 C.3     
  24 C24           -4.8053    -6.7509    -4.1808 C.3     
  25 H25           -7.8020    -8.2194    -4.3119 H       
  26 O26           -0.2650    -3.3230     1.7811 O.2     
  27 N27            1.9467    -3.8567     1.5967 N.am    
  28 C28            2.5806    -2.7315    -0.2900 C.ar    
  29 C29            3.0072    -3.5723     0.7330 C.ar    
  30 C30            3.4496    -2.3076    -1.2711 C.ar    
  31 C31            4.7715    -2.7172    -1.2516 C.ar    
  32 C32            5.2182    -3.5625    -0.2308 C.ar    
  33 C33            4.3331    -3.9883     0.7592 C.ar    
  34 C34            1.7191    -6.4738     2.4173 C.ar    
  35 C35            0.4497    -6.7970     1.9610 C.ar    
  36 C36            2.7031    -7.4426     2.4625 C.ar    
  37 C37            2.4236    -8.7330     2.0530 C.ar    
  38 C38            1.1589    -9.0579     1.5977 C.ar    
  39 C39            0.1716    -8.0931     1.5510 C.ar    
  40 H40            0.9430   -10.0667     1.2784 H       
  41 O41           -0.5201    -5.8460     1.9160 O.3     
  42 C42           -1.8035    -6.2504     1.4350 C.3     
  43 C43           -2.7567    -5.0539     1.4571 C.3     
  44 C44            6.5841    -3.9914    -0.2027 C.1     
  45 N45            7.6677    -4.3316    -0.1803 N.1     
  46 O46            1.3000    -0.5487    -2.1062 O.3     
  47 C47            1.2994     0.4098    -3.1661 C.3     
  48 C48            1.7845    -0.2556    -4.4556 C.3     
  49 F49            3.0460    -0.8215    -4.2424 F       
  50 F50            0.8821    -1.2561    -4.8322 F       
  51 S51            2.0783    -4.8273     2.9319 S.o2    
  52 O52            3.4495    -4.8136     3.3044 O.2     
  53 O53            1.0301    -4.4442     3.8115 O.2     
  54 H54            0.4536    -1.1995     2.2819 H       
  55 H55            0.0706     1.2399     2.5729 H       
  56 H56            0.2868     2.7348     0.6319 H       
  57 H57            0.6000    -2.5031    -2.1301 H       
  58 H58            0.3759    -4.0570    -1.2913 H       
  59 H59           -3.6368    -2.0777    -0.7364 H       
  60 H60           -3.8080    -1.9785    -2.5078 H       
  61 H61           -4.1927    -4.4623    -0.7736 H       
  62 H62           -5.4633    -3.5624    -1.6373 H       
  63 H63           -4.3506    -4.0914    -3.7996 H       
  64 H64           -2.4812    -5.7350    -2.0324 H       
  65 H65           -2.5057    -5.7616    -3.8126 H       
  66 H66           -1.9184    -3.3813    -3.9020 H       
  67 H67           -0.7350    -4.2284    -2.8728 H       
  68 H68           -4.8645    -6.5297    -2.0364 H       
  69 H69           -6.7299    -4.9161    -1.9910 H       
  70 H70           -6.7176    -4.8305    -3.7696 H       
  71 H71           -7.2569    -7.3313    -2.1039 H       
  72 H72           -8.4796    -6.3794    -2.9795 H       
  73 H73           -5.5923    -8.5692    -3.3343 H       
  74 H74           -5.5923    -8.5264    -5.1136 H       
  75 H75           -4.9680    -6.1314    -5.0627 H       
  76 H76           -3.7768    -7.1120    -4.1737 H       
  77 H77            3.0989    -1.6549    -2.0568 H       
  78 H78            4.6783    -4.6411     1.5473 H       
  79 H79            3.6917    -7.1914     2.8177 H       
  80 H80            3.1944    -9.4887     2.0884 H       
  81 H81           -0.8162    -8.3475     1.1960 H       
  82 H82           -1.7088    -6.6207     0.4142 H       
  83 H83           -2.1981    -7.0411     2.0732 H       
  84 H84           -2.8514    -4.6836     2.4779 H       
  85 H85           -2.3621    -4.2632     0.8190 H       
  86 H86           -3.7356    -5.3623     1.0902 H       
  87 H87            0.2882     0.7900    -3.3116 H       
  88 H88            1.9644     1.2347    -2.9105 H       
  89 H89            1.8503     0.4910    -5.2472 H       
@<TRIPOS>BOND
   1    1   31 1
   2    2    3 ar
   3    2    7 ar
   4    3    4 ar
   5    3   46 1
   6    4    5 ar
   7    4    8 1
   8    5    6 ar
   9    5   54 1
  10    6    7 ar
  11    6   55 1
  12    7   56 1
  13    8    9 1
  14    8   10 1
  15    8   28 1
  16    9   26 2
  17    9   27 am
  18   10   11 1
  19   10   57 1
  20   10   58 1
  21   11   12 am
  22   11   13 2
  23   12   14 1
  24   12   18 1
  25   14   15 1
  26   14   59 1
  27   14   60 1
  28   15   16 1
  29   15   61 1
  30   15   62 1
  31   16   17 1
  32   16   19 1
  33   16   63 1
  34   17   18 1
  35   17   64 1
  36   17   65 1
  37   18   66 1
  38   18   67 1
  39   19   20 1
  40   19   24 1
  41   19   68 1
  42   20   21 1
  43   20   69 1
  44   20   70 1
  45   21   22 1
  46   21   71 1
  47   21   72 1
  48   22   23 1
  49   22   25 1
  50   23   24 1
  51   23   73 1
  52   23   74 1
  53   24   75 1
  54   24   76 1
  55   27   51 am
  56   27   29 1
  57   28   29 ar
  58   28   30 ar
  59   29   33 ar
  60   30   31 ar
  61   30   77 1
  62   31   32 ar
  63   32   33 ar
  64   32   44 1
  65   33   78 1
  66   34   35 ar
  67   34   36 ar
  68   34   51 1
  69   35   41 1
  70   35   39 ar
  71   36   37 ar
  72   36   79 1
  73   37   38 ar
  74   37   80 1
  75   38   39 ar
  76   38   40 1
  77   39   81 1
  78   41   42 1
  79   42   43 1
  80   42   82 1
  81   42   83 1
  82   43   84 1
  83   43   85 1
  84   43   86 1
  85   44   45 3
  86   46   47 1
  87   47   48 1
  88   47   87 1
  89   47   88 1
  90   48   49 1
  91   48   50 1
  92   48   89 1
  93   51   52 2
  94   51   53 2

#	End of record

