#	Name: ASD02500172
#	Creating user name:	WinNT
#	Creation time:	15. 06. 2019 20:22

#	Modifying user name:	WinNT
#	Modification time:	15. 06. 2019 20:22

#	Program:	/corina/corina34_cracker 3.40 0067  02.08.2006

@<TRIPOS>MOLECULE
ASD02500172
  61   65    0    0    0
SMALL
NO_CHARGES


@<TRIPOS>ATOM
   1 N1             1.2979     2.2614     3.0751 N.am    
   2 C2             0.7599     1.0926     2.3649 C.3     
   3 C3             0.9705     1.2944     0.8592 C.3     
   4 N4             2.3694     1.6813     0.6284 N.am    
   5 C5             2.9074     2.8500     1.3385 C.3     
   6 C6             2.6968     2.6483     2.8443 C.3     
   7 C7             0.5207     2.9691     3.9187 C.2     
   8 O8            -0.6360     2.6426     4.0976 O.2     
   9 O9             1.0261     4.0381     4.5633 O.3     
  10 C10            3.1451     0.9766    -0.2191 C.2     
  11 C11            4.5065     1.4472    -0.5374 C.ar    
  12 C12            5.5273     0.5241    -0.7822 C.ar    
  13 C13            6.7963     0.9662    -1.0787 C.ar    
  14 C14            7.0639     2.3313    -1.1351 C.ar    
  15 C15            6.0495     3.2531    -0.8914 C.ar    
  16 C16            4.7771     2.8173    -0.6004 C.ar    
  17 O17            2.7227    -0.0471    -0.7213 O.2     
  18 S18            8.5652     4.0024    -2.5251 S.o2    
  19 O19            7.7063     5.0584    -2.1173 O.2     
  20 O20            9.9693     4.1578    -2.6787 O.2     
  21 N21            8.3471     2.7749    -1.4351 N.am    
  22 N22            9.6632     1.7729    -4.2127 N.ar    
  23 C23           10.2604     0.7806    -4.8266 C.ar    
  24 C24            9.8113     0.3020    -6.0557 C.ar    
  25 C25            8.7210     0.8696    -6.6510 C.ar    
  26 C26            8.0819     1.9348    -5.9886 C.ar    
  27 C27            6.9563     2.5680    -6.5390 C.ar    
  28 C28            6.3665     3.5953    -5.8674 C.ar    
  29 C29            6.8647     4.0264    -4.6399 C.ar    
  30 C30            7.9546     3.4358    -4.0777 C.ar    
  31 C31            8.5913     2.3724    -4.7407 C.ar    
  32 C32            0.1641     4.7655     5.3224 C.ar    
  33 C33           -0.3742     4.2192     6.4782 C.ar    
  34 C34           -1.2496     4.9600     7.2485 C.ar    
  35 C35           -1.5898     6.2460     6.8675 C.ar    
  36 C36           -1.0538     6.7925     5.7148 C.ar    
  37 C37           -0.1737     6.0569     4.9450 C.ar    
  38 Cl38          -2.6909     7.1746     7.8365 Cl      
  39 H39            1.2836     0.1938     2.6903 H       
  40 H40           -0.3051     0.9950     2.5755 H       
  41 H41            0.7563     0.3647     0.3320 H       
  42 H42            0.3089     2.0825     0.4996 H       
  43 H43            3.9724     2.9477     1.1280 H       
  44 H44            2.3837     3.7489     1.0131 H       
  45 H45            2.9110     3.5780     3.3714 H       
  46 H46            3.3584     1.8602     3.2038 H       
  47 H47            5.3204    -0.5350    -0.7382 H       
  48 H48            7.5854     0.2536    -1.2676 H       
  49 H49            6.2604     4.3114    -0.9352 H       
  50 H50            3.9894     3.5329    -0.4165 H       
  51 H51            9.1146     2.3654    -1.0059 H       
  52 H52           11.1239     0.3220    -4.3677 H       
  53 H53           10.3250    -0.5168    -6.5373 H       
  54 H54            8.3595     0.5115    -7.6036 H       
  55 H55            6.5607     2.2426    -7.4898 H       
  56 H56            5.5006     4.0819    -6.2916 H       
  57 H57            6.3796     4.8437    -4.1270 H       
  58 H58           -0.1095     3.2153     6.7755 H       
  59 H59           -1.6689     4.5351     8.1485 H       
  60 H60           -1.3205     7.7964     5.4190 H       
  61 H61            0.2477     6.4853     4.0477 H       
@<TRIPOS>BOND
   1    1    2 1
   2    1    6 1
   3    1    7 am
   4    2    3 1
   5    2   39 1
   6    2   40 1
   7    3    4 1
   8    3   41 1
   9    3   42 1
  10    4    5 1
  11    4   10 am
  12    5    6 1
  13    5   43 1
  14    5   44 1
  15    6   45 1
  16    6   46 1
  17    7    8 2
  18    7    9 1
  19    9   32 1
  20   10   11 1
  21   10   17 2
  22   11   12 ar
  23   11   16 ar
  24   12   13 ar
  25   12   47 1
  26   13   14 ar
  27   13   48 1
  28   14   15 ar
  29   14   21 1
  30   15   16 ar
  31   15   49 1
  32   16   50 1
  33   18   19 2
  34   18   20 2
  35   18   21 am
  36   18   30 1
  37   21   51 1
  38   22   23 ar
  39   22   31 ar
  40   23   24 ar
  41   23   52 1
  42   24   25 ar
  43   24   53 1
  44   25   26 ar
  45   25   54 1
  46   26   27 ar
  47   26   31 ar
  48   27   28 ar
  49   27   55 1
  50   28   29 ar
  51   28   56 1
  52   29   30 ar
  53   29   57 1
  54   30   31 ar
  55   32   33 ar
  56   32   37 ar
  57   33   34 ar
  58   33   58 1
  59   34   35 ar
  60   34   59 1
  61   35   36 ar
  62   35   38 1
  63   36   37 ar
  64   36   60 1
  65   37   61 1

#	End of record

