#	Name: ASD03331730
#	Creating user name:	WinNT
#	Creation time:	15. 06. 2019 20:39

#	Modifying user name:	WinNT
#	Modification time:	15. 06. 2019 20:39

#	Program:	/corina/corina34_cracker 3.40 0067  02.08.2006

@<TRIPOS>MOLECULE
ASD03331730
  44   47    0    0    0
SMALL
NO_CHARGES


@<TRIPOS>ATOM
   1 C1            -0.0305     1.6062    -0.2849 C.ar    
   2 C2            -0.0604     0.2406    -0.3164 C.ar    
   3 C3             1.0588    -0.4977     0.0427 C.ar    
   4 C4             2.2195     0.1317     0.4377 C.ar    
   5 C5             1.1360     2.2658     0.1120 C.ar    
   6 C6             1.5044     3.6733     0.2553 C.2     
   7 C7             2.2737     1.5208     0.4776 C.ar    
   8 N8             3.2617     2.4179     0.8188 N.pl3   
   9 C9             2.7913     3.7035     0.6816 C.2     
  10 C10            0.6222     4.8638    -0.0193 C.3     
  11 C11            3.5697     4.9305     0.9573 C.ar    
  12 C12            0.9516     5.4308    -1.3762 C.ar    
  13 C13           -0.8445     4.4291     0.0094 C.3     
  14 C14            3.5921     5.9700     0.0266 C.ar    
  15 C15            4.2803     5.0559     2.1517 C.ar    
  16 C16            5.0041     6.2032     2.4030 C.ar    
  17 C17            5.0261     7.2283     1.4741 C.ar    
  18 C18            4.3198     7.1122     0.2901 C.ar    
  19 C19            1.5249     7.2993    -2.7592 C.ar    
  20 C20            1.5566     6.4709    -3.8653 C.ar    
  21 C21            1.2794     5.1236    -3.7280 C.ar    
  22 C22            0.9772     4.6035    -2.4833 C.ar    
  23 C23            1.2227     6.7792    -1.5145 C.ar    
  24 N24           -1.1354     3.7761     1.2881 N.pl3   
  25 O25           -0.7843     4.2969     2.3317 O.2     
  26 O26           -1.7283     2.7123     1.3077 O.2     
  27 H27           -0.9038     2.1741    -0.5700 H       
  28 H28           -0.9622    -0.2685    -0.6229 H       
  29 H29            1.0195    -1.5765     0.0126 H       
  30 H30            3.0845    -0.4522     0.7158 H       
  31 H31            4.1550     2.1791     1.1118 H       
  32 H32            0.7907     5.6244     0.7430 H       
  33 H33           -1.4849     5.3036    -0.1060 H       
  34 H34           -1.0326     3.7309    -0.8063 H       
  35 H35            3.0412     5.8806    -0.8980 H       
  36 H36            4.2634     4.2567     2.8780 H       
  37 H37            5.5545     6.3015     3.3271 H       
  38 H38            5.5936     8.1247     1.6759 H       
  39 H39            4.3380     7.9175    -0.4294 H       
  40 H40            1.7415     8.3519    -2.8664 H       
  41 H41            1.7927     6.8772    -4.8377 H       
  42 H42            1.3040     4.4764    -4.5922 H       
  43 H43            0.7614     3.5507    -2.3759 H       
  44 H44            1.1980     7.4264    -0.6503 H       
@<TRIPOS>BOND
   1    1    2 ar
   2    1    5 ar
   3    1   27 1
   4    2    3 ar
   5    2   28 1
   6    3    4 ar
   7    3   29 1
   8    4    7 ar
   9    4   30 1
  10    5    7 ar
  11    5    6 1
  12    6    9 2
  13    6   10 1
  14    7    8 1
  15    8    9 1
  16    8   31 1
  17    9   11 1
  18   10   12 1
  19   10   13 1
  20   10   32 1
  21   11   15 ar
  22   11   14 ar
  23   12   23 ar
  24   12   22 ar
  25   13   24 1
  26   13   33 1
  27   13   34 1
  28   14   18 ar
  29   14   35 1
  30   15   16 ar
  31   15   36 1
  32   16   17 ar
  33   16   37 1
  34   17   18 ar
  35   17   38 1
  36   18   39 1
  37   19   20 ar
  38   19   23 ar
  39   19   40 1
  40   20   21 ar
  41   20   41 1
  42   21   22 ar
  43   21   42 1
  44   22   43 1
  45   23   44 1
  46   24   25 2
  47   24   26 2

#	End of record

