#	Name: ASD01811111
#	Creating user name:	WinNT
#	Creation time:	15. 06. 2019 19:26

#	Modifying user name:	WinNT
#	Modification time:	15. 06. 2019 19:26

#	Program:	/corina/corina34_cracker 3.40 0067  02.08.2006

@<TRIPOS>MOLECULE
ASD01811111
  56   59    0    0    0
SMALL
NO_CHARGES


@<TRIPOS>ATOM
   1 C1            -1.9066     1.4014     0.0374 C.2     
   2 C2            -2.0105     0.0627     0.0827 C.2     
   3 N3            -0.9003    -0.7284    -0.0086 N.pl3   
   4 C4             0.3412    -0.2442    -0.1331 C.2     
   5 C5             0.5525     1.1196    -0.1787 C.2     
   6 C6            -0.6215     1.9978    -0.0941 C.2     
   7 C7            -1.0779    -2.1820     0.0326 C.3     
   8 C8            -0.8981    -2.6702     1.4469 C.ar    
   9 O9            -0.4970     3.2118    -0.1282 O.2     
  10 C10            1.9087     1.6745    -0.3124 C.2     
  11 O11            2.8660     0.9291    -0.3846 O.2     
  12 O12            2.0895     3.0095    -0.3546 O.3     
  13 C13           -2.0039    -2.8622     2.2554 C.ar    
  14 C14           -1.8451    -3.3091     3.5515 C.ar    
  15 C15           -0.5678    -3.5675     4.0451 C.ar    
  16 C16            0.5427    -3.3728     3.2260 C.ar    
  17 C17            0.3717    -2.9301     1.9299 C.ar    
  18 C18           -3.0929     2.3253     0.1129 C.3     
  19 C19           -4.3118     1.5969     0.6750 C.3     
  20 C20           -4.4910     0.2908    -0.1090 C.3     
  21 C21           -3.3354    -0.6415     0.2447 C.3     
  22 O22           -2.7744     3.4316     0.9594 O.3     
  23 C23           -0.3907    -4.0477     5.4376 C.ar    
  24 C24           -1.4948    -4.2441     6.2617 C.ar    
  25 N25           -1.3427    -4.6701     7.4998 N.ar    
  26 C26           -0.1463    -4.9269     8.0065 C.ar    
  27 C27            1.0048    -4.7540     7.2424 C.ar    
  28 C28            0.8887    -4.3148     5.9387 C.ar    
  29 N29           -0.0384    -5.3741     9.3173 N.pl3   
  30 C30            1.2832    -5.5562     9.9227 C.3     
  31 C31           -1.2462    -5.6635    10.0943 C.3     
  32 H32            1.1797    -0.9218    -0.1978 H       
  33 H33           -2.0795    -2.4356    -0.3147 H       
  34 H34           -0.3386    -2.6568    -0.6124 H       
  35 H35            2.9987     3.3268    -0.4431 H       
  36 H36           -2.9934    -2.6616     1.8719 H       
  37 H37           -2.7092    -3.4580     4.1821 H       
  38 H38            1.5349    -3.5711     3.6035 H       
  39 H39            1.2316    -2.7791     1.2941 H       
  40 H40           -3.3246     2.6941    -0.8863 H       
  41 H41           -4.1530     1.3739     1.7300 H       
  42 H42           -5.1985     2.2201     0.5594 H       
  43 H43           -5.4370    -0.1758     0.1656 H       
  44 H44           -4.4804     0.4998    -1.1787 H       
  45 H45           -3.3621    -1.5111    -0.4119 H       
  46 H46           -3.4429    -0.9700     1.2784 H       
  47 H47           -3.4925     4.0718     1.0569 H       
  48 H48           -2.4864    -4.0450     5.8831 H       
  49 H49            1.9767    -4.9654     7.6632 H       
  50 H50            1.7645    -4.1720     5.3232 H       
  51 H51            1.5923    -4.6294    10.4059 H       
  52 H52            1.2366    -6.3543    10.6636 H       
  53 H53            2.0040    -5.8204     9.1489 H       
  54 H54           -2.1271    -5.4706     9.4820 H       
  55 H55           -1.2389    -6.7095    10.4010 H       
  56 H56           -1.2712    -5.0259    10.9780 H       
@<TRIPOS>BOND
   1    1    2 2
   2    1   18 1
   3    1    6 1
   4    2    3 1
   5    2   21 1
   6    3    4 1
   7    3    7 1
   8    4    5 2
   9    4   32 1
  10    5    6 1
  11    5   10 1
  12    6    9 2
  13    7    8 1
  14    7   33 1
  15    7   34 1
  16    8   13 ar
  17    8   17 ar
  18   10   11 2
  19   10   12 1
  20   12   35 1
  21   13   14 ar
  22   13   36 1
  23   14   15 ar
  24   14   37 1
  25   15   16 ar
  26   15   23 1
  27   16   17 ar
  28   16   38 1
  29   17   39 1
  30   18   19 1
  31   18   22 1
  32   18   40 1
  33   19   20 1
  34   19   41 1
  35   19   42 1
  36   20   21 1
  37   20   43 1
  38   20   44 1
  39   21   45 1
  40   21   46 1
  41   22   47 1
  42   23   24 ar
  43   23   28 ar
  44   24   25 ar
  45   24   48 1
  46   25   26 ar
  47   26   27 ar
  48   26   29 1
  49   27   28 ar
  50   27   49 1
  51   28   50 1
  52   29   30 1
  53   29   31 1
  54   30   51 1
  55   30   52 1
  56   30   53 1
  57   31   54 1
  58   31   55 1
  59   31   56 1

#	End of record

