#	Name: ASD04590779
#	Creating user name:	WinNT
#	Creation time:	15. 06. 2019 20:51

#	Modifying user name:	WinNT
#	Modification time:	15. 06. 2019 20:51

#	Program:	/corina/corina34_cracker 3.40 0067  02.08.2006

@<TRIPOS>MOLECULE
ASD04590779
  66   71    0    0    0
SMALL
NO_CHARGES


@<TRIPOS>ATOM
   1 N1             2.0372    -0.0523     1.8308 N.3     
   2 N2             6.7485    -0.7276    -5.0254 N.ar    
   3 C3             6.1569    -1.5756    -5.8570 C.ar    
   4 N4             6.7780    -2.0834    -6.9094 N.ar    
   5 C5             8.0388    -1.7554    -7.1746 C.ar    
   6 C6             8.6954    -0.8566    -6.3100 C.ar    
   7 C7             8.0015    -0.3489    -5.2162 C.ar    
   8 N8             8.9142    -2.1171    -8.1711 N.pl3   
   9 C9            10.1346    -1.4849    -7.9947 C.ar    
  10 C10           10.0531    -0.6823    -6.8426 C.ar    
  11 C11           11.3282    -1.5060    -8.7040 C.ar    
  12 N12           12.3587    -0.7895    -8.3033 N.ar    
  13 C13           12.3150    -0.0256    -7.2260 C.ar    
  14 C14           11.1712     0.0578    -6.4605 C.ar    
  15 C15            8.6150    -2.9994    -9.2164 C.ar    
  16 N16            4.8435    -1.9426    -5.6149 N.pl3   
  17 C17            4.2018    -1.5119    -4.4537 C.ar    
  18 C18            2.8520    -1.7898    -4.2711 C.ar    
  19 C19            2.2249    -1.3588    -3.1159 C.ar    
  20 C20            2.9767    -0.6582    -2.1744 C.ar    
  21 C21            4.3198    -0.4177    -2.4249 C.ar    
  22 N22            4.8863    -0.8482    -3.5358 N.ar    
  23 N23            2.3838    -0.2024    -0.9910 N.3     
  24 C24            3.3600     0.5066    -0.1520 C.3     
  25 C25            2.6564     1.0563     1.0911 C.3     
  26 C26            1.0610    -0.7612     0.9918 C.3     
  27 C27            1.7646    -1.3110    -0.2513 C.3     
  28 C28            9.2765    -4.2169    -9.3102 C.ar    
  29 C29            7.6519    -2.6614   -10.1581 C.ar    
  30 C30            7.3587    -3.5341   -11.1876 C.ar    
  31 C31            8.0226    -4.7436   -11.2810 C.ar    
  32 C32            8.9787    -5.0852   -10.3421 C.ar    
  33 C33            7.6998    -5.6936   -12.4054 C.3     
  34 C34            8.5922    -5.3993   -13.5836 C.2     
  35 O35            9.4068    -4.5094   -13.5170 O.2     
  36 O36            8.4821    -6.1258   -14.7069 O.3     
  37 C37            9.1030    -6.7154   -16.9866 C.3     
  38 C38            9.3740    -5.7866   -15.8013 C.3     
  39 H39            2.7376    -0.6864     2.1851 H       
  40 H40            8.4771     0.3417    -4.5355 H       
  41 H41           11.4127    -2.1154    -9.5916 H       
  42 H42           13.1884     0.5421    -6.9408 H       
  43 H43           11.1420     0.6845    -5.5814 H       
  44 H44            4.3698    -2.4990    -6.2528 H       
  45 H45            2.2997    -2.3352    -5.0221 H       
  46 H46            1.1773    -1.5601    -2.9476 H       
  47 H47            4.9091     0.1248    -1.7005 H       
  48 H48            4.1478    -0.1831     0.1512 H       
  49 H49            3.7954     1.3304    -0.7176 H       
  50 H50            1.8868     1.7667     0.7890 H       
  51 H51            3.3842     1.5577     1.7291 H       
  52 H52            0.6257    -1.5850     1.5574 H       
  53 H53            0.2733    -0.0716     0.6886 H       
  54 H54            1.0368    -1.8123    -0.8893 H       
  55 H55            2.5342    -2.0213     0.0508 H       
  56 H56           10.0233    -4.4842    -8.5773 H       
  57 H57            7.1326    -1.7173   -10.0853 H       
  58 H58            6.6098    -3.2718   -11.9203 H       
  59 H59            9.4955    -6.0305   -10.4178 H       
  60 H60            7.8631    -6.7188   -12.0730 H       
  61 H61            6.6575    -5.5685   -12.6989 H       
  62 H62            9.2746    -7.7487   -16.6851 H       
  63 H63            8.0690    -6.5984   -17.3109 H       
  64 H64            9.7725    -6.4607   -17.8082 H       
  65 H65            9.2024    -4.7533   -16.1029 H       
  66 H66           10.4080    -5.9036   -15.4770 H       
@<TRIPOS>BOND
   1    1   25 1
   2    1   26 1
   3    1   39 1
   4    2    3 ar
   5    2    7 ar
   6    3    4 ar
   7    3   16 1
   8    4    5 ar
   9    5    6 ar
  10    5    8 1
  11    6    7 ar
  12    6   10 1
  13    7   40 1
  14    8    9 1
  15    8   15 1
  16    9   10 ar
  17    9   11 ar
  18   10   14 ar
  19   11   12 ar
  20   11   41 1
  21   12   13 ar
  22   13   14 ar
  23   13   42 1
  24   14   43 1
  25   15   29 ar
  26   15   28 ar
  27   16   17 1
  28   16   44 1
  29   17   18 ar
  30   17   22 ar
  31   18   19 ar
  32   18   45 1
  33   19   20 ar
  34   19   46 1
  35   20   21 ar
  36   20   23 1
  37   21   22 ar
  38   21   47 1
  39   23   24 1
  40   23   27 1
  41   24   25 1
  42   24   48 1
  43   24   49 1
  44   25   50 1
  45   25   51 1
  46   26   27 1
  47   26   52 1
  48   26   53 1
  49   27   54 1
  50   27   55 1
  51   28   32 ar
  52   28   56 1
  53   29   30 ar
  54   29   57 1
  55   30   31 ar
  56   30   58 1
  57   31   32 ar
  58   31   33 1
  59   32   59 1
  60   33   34 1
  61   33   60 1
  62   33   61 1
  63   34   35 2
  64   34   36 1
  65   36   38 1
  66   37   38 1
  67   37   62 1
  68   37   63 1
  69   37   64 1
  70   38   65 1
  71   38   66 1

#	End of record

