#	Name: ASD04590497
#	Creating user name:	WinNT
#	Creation time:	15. 06. 2019 20:50

#	Modifying user name:	WinNT
#	Modification time:	15. 06. 2019 20:50

#	Program:	/corina/corina34_cracker 3.40 0067  02.08.2006

@<TRIPOS>MOLECULE
ASD04590497
  55   59    0    0    0
SMALL
NO_CHARGES


@<TRIPOS>ATOM
   1 C1            -0.0167     1.3834     0.0096 C.ar    
   2 C2             0.0021    -0.0041     0.0020 C.ar    
   3 C3             2.3948     0.0191    -0.0208 C.ar    
   4 C4             2.3756     1.4249    -0.0130 C.ar    
   5 C5             1.1624     2.0987     0.0022 C.ar    
   6 N6             3.6952    -0.3637    -0.0357 N.2     
   7 C7             4.4665     0.6967    -0.0377 C.2     
   8 N8             3.6970     1.8290    -0.0239 N.pl3   
   9 C9             5.9437     0.6731    -0.0514 C.2     
  10 C10            6.7565    -0.4840    -0.0651 C.2     
  11 C11            8.0504    -0.0800    -0.0754 C.2     
  12 N12            8.0626     1.2789    -0.0686 N.pl3   
  13 N13            6.7358     1.7273    -0.0589 N.2     
  14 N14            6.3043    -1.8134    -0.0672 N.am    
  15 C15            7.1922    -2.8272    -0.0810 C.2     
  16 O16            8.3860    -2.5905    -0.0916 O.2     
  17 C17            1.1863    -0.6848    -0.0130 C.ar    
  18 C18            6.7196    -4.2165    -0.0832 C.2     
  19 C19            7.4911    -5.3446    -0.0963 C.2     
  20 C20           -1.2971    -0.7677     0.0109 C.3     
  21 N21           -1.7331    -1.0083    -1.3711 N.3     
  22 C22           -2.8628    -1.9482    -1.4111 C.3     
  23 C23           -0.6195    -1.4969    -2.1973 C.3     
  24 C24           -1.1017    -1.6771    -3.6392 C.3     
  25 O25           -2.2194    -2.5691    -3.6548 O.3     
  26 C26           -3.3225    -2.1239    -2.8608 C.3     
  27 N27            6.6731    -6.3975    -0.0927 N.2     
  28 C28            5.4298    -5.9897    -0.0779 C.2     
  29 N29            5.4064    -4.6448    -0.0663 N.pl3   
  30 C30            4.2173    -6.8845    -0.0694 C.3     
  31 C31            8.9973    -5.3903    -0.1126 C.3     
  32 F32            9.4775    -5.4102     1.2012 F       
  33 F33            9.4217    -6.5433    -0.7817 F       
  34 F34            9.4910    -4.2598    -0.7725 F       
  35 H35           -0.9614     1.9069     0.0170 H       
  36 H36            1.1417     3.1785     0.0079 H       
  37 H37            4.0192     2.7439    -0.0225 H       
  38 H38            8.9175    -0.7237    -0.0870 H       
  39 H39            8.8532     1.8410    -0.0732 H       
  40 H40            5.3529    -2.0020    -0.0588 H       
  41 H41            1.1893    -1.7648    -0.0185 H       
  42 H42           -1.1543    -1.7218     0.5182 H       
  43 H43           -2.0561    -0.1872     0.5354 H       
  44 H44           -2.5490    -2.9117    -1.0095 H       
  45 H45           -3.6851    -1.5545    -0.8137 H       
  46 H46            0.1957    -0.7737    -2.1739 H       
  47 H47           -0.2699    -2.4532    -1.8083 H       
  48 H48           -1.4011    -0.7113    -4.0462 H       
  49 H49           -0.2955    -2.0932    -4.2433 H       
  50 H50           -4.1224    -2.8632    -2.9020 H       
  51 H51           -3.6865    -1.1711    -3.2452 H       
  52 H52            4.6165    -4.0820    -0.0543 H       
  53 H53            3.9353    -7.1045     0.9602 H       
  54 H54            3.3913    -6.3819    -0.5728 H       
  55 H55            4.4481    -7.8141    -0.5895 H       
@<TRIPOS>BOND
   1    1    2 ar
   2    1    5 ar
   3    1   35 1
   4    2   17 ar
   5    2   20 1
   6    3    4 ar
   7    3    6 1
   8    3   17 ar
   9    4    5 ar
  10    4    8 1
  11    5   36 1
  12    6    7 2
  13    7    8 1
  14    7    9 1
  15    8   37 1
  16    9   10 1
  17    9   13 2
  18   10   11 2
  19   10   14 1
  20   11   12 1
  21   11   38 1
  22   12   13 1
  23   12   39 1
  24   14   15 am
  25   14   40 1
  26   15   16 2
  27   15   18 1
  28   17   41 1
  29   18   19 2
  30   18   29 1
  31   19   27 1
  32   19   31 1
  33   20   21 1
  34   20   42 1
  35   20   43 1
  36   21   22 1
  37   21   23 1
  38   22   26 1
  39   22   44 1
  40   22   45 1
  41   23   24 1
  42   23   46 1
  43   23   47 1
  44   24   25 1
  45   24   48 1
  46   24   49 1
  47   25   26 1
  48   26   50 1
  49   26   51 1
  50   27   28 2
  51   28   29 1
  52   28   30 1
  53   29   52 1
  54   30   53 1
  55   30   54 1
  56   30   55 1
  57   31   32 1
  58   31   33 1
  59   31   34 1

#	End of record

