#	Name: ASD00310328
#	Creating user name:	WinNT
#	Creation time:	15. 06. 2019 18:34

#	Modifying user name:	WinNT
#	Modification time:	15. 06. 2019 18:34

#	Program:	/corina/corina34_cracker 3.40 0067  02.08.2006

@<TRIPOS>MOLECULE
ASD00310328
  50   51    0    0    0
SMALL
NO_CHARGES


@<TRIPOS>ATOM
   1 C1            -0.0184     1.5028     0.0103 C.2     
   2 C2             0.0021    -0.0041     0.0020 C.3     
   3 C3             1.4295    -0.4870    -0.0142 C.2     
   4 O4             1.0197     2.1211     0.0037 O.2     
   5 O5            -1.1898     2.1580     0.0194 O.3     
   6 O6             2.3371     0.3106    -0.0186 O.2     
   7 O7             1.6926    -1.8032    -0.0238 O.3     
   8 C8            -0.6897    -0.5226     1.2364 C.ar    
   9 C9            -0.2098    -0.1889     2.4891 C.ar    
  10 C10           -0.8442    -0.6639     3.6215 C.ar    
  11 C11           -1.9594    -1.4733     3.5011 C.ar    
  12 C12           -2.4392    -1.8070     2.2474 C.ar    
  13 C13           -1.8073    -1.3272     1.1156 C.ar    
  14 Br14          -2.8274    -2.1240     5.0500 Br      
  15 C15           -0.7241    -0.5171    -1.2431 C.3     
  16 O16           -0.0681    -0.0254    -2.4136 O.3     
  17 C17           -0.6704    -0.4485    -3.6385 C.3     
  18 C18            0.0984     0.1252    -4.8007 C.ar    
  19 C19            1.1554    -0.5796    -5.3457 C.ar    
  20 C20            1.8606    -0.0533    -6.4118 C.ar    
  21 C21            1.5086     1.1776    -6.9332 C.ar    
  22 C22            0.4511     1.8820    -6.3888 C.ar    
  23 C23           -0.2569     1.3537    -5.3255 C.ar    
  24 C24           -1.1335     3.6089     0.0270 C.3     
  25 C25           -2.5551     4.1744     0.0369 C.3     
  26 C26            3.0904    -2.1959    -0.0392 C.3     
  27 C27            3.1912    -3.7226    -0.0484 C.3     
  28 H28            0.6611     0.4428     2.5830 H       
  29 H29           -0.4690    -0.4034     4.6002 H       
  30 H30           -3.3097    -2.4393     2.1529 H       
  31 H31           -2.1843    -1.5844     0.1368 H       
  32 H32           -0.7093    -1.6070    -1.2491 H       
  33 H33           -1.7565    -0.1678    -1.2314 H       
  34 H34           -0.6545    -1.5370    -3.6941 H       
  35 H35           -1.7017    -0.0978    -3.6764 H       
  36 H36            1.4304    -1.5413    -4.9383 H       
  37 H37            2.6868    -0.6037    -6.8371 H       
  38 H38            2.0601     1.5891    -7.7656 H       
  39 H39            0.1763     2.8438    -6.7959 H       
  40 H40           -1.0854     1.9024    -4.9025 H       
  41 H41           -0.6017     3.9472     0.9164 H       
  42 H42           -0.6102     3.9569    -0.8636 H       
  43 H43           -3.0784     3.8265     0.9275 H       
  44 H44           -2.5128     5.2636     0.0426 H       
  45 H45           -3.0869     3.8361    -0.8525 H       
  46 H46            3.5707    -1.7947    -0.9317 H       
  47 H47            3.5877    -1.8043     0.8481 H       
  48 H48            2.6940    -4.1142    -0.9358 H       
  49 H49            4.2405    -4.0173    -0.0600 H       
  50 H50            2.7110    -4.1237     0.8441 H       
@<TRIPOS>BOND
   1    1    2 1
   2    1    4 2
   3    1    5 1
   4    2    3 1
   5    2    8 1
   6    2   15 1
   7    3    6 2
   8    3    7 1
   9    5   24 1
  10    7   26 1
  11    8    9 ar
  12    8   13 ar
  13    9   10 ar
  14    9   28 1
  15   10   11 ar
  16   10   29 1
  17   11   12 ar
  18   11   14 1
  19   12   13 ar
  20   12   30 1
  21   13   31 1
  22   15   16 1
  23   15   32 1
  24   15   33 1
  25   16   17 1
  26   17   18 1
  27   17   34 1
  28   17   35 1
  29   18   19 ar
  30   18   23 ar
  31   19   20 ar
  32   19   36 1
  33   20   21 ar
  34   20   37 1
  35   21   22 ar
  36   21   38 1
  37   22   23 ar
  38   22   39 1
  39   23   40 1
  40   24   25 1
  41   24   41 1
  42   24   42 1
  43   25   43 1
  44   25   44 1
  45   25   45 1
  46   26   27 1
  47   26   46 1
  48   26   47 1
  49   27   48 1
  50   27   49 1
  51   27   50 1

#	End of record

