#	Name: ASD01883843
#	Creating user name:	WinNT
#	Creation time:	15. 06. 2019 19:47

#	Modifying user name:	WinNT
#	Modification time:	15. 06. 2019 19:47

#	Program:	/corina/corina34_cracker 3.40 0067  02.08.2006

@<TRIPOS>MOLECULE
ASD01883843
  35   38    0    0    0
SMALL
NO_CHARGES


@<TRIPOS>ATOM
   1 C1             0.8480    -0.1950     1.0481 C.ar    
   2 O2             0.0021    -0.0041     0.0020 O.3     
   3 C3            -1.1396    -0.7379    -0.0367 C.2     
   4 C4            -3.5239    -0.9079     0.0552 C.2     
   5 C5            -2.3549    -0.1266     0.0991 C.2     
   6 C6            -1.0791    -2.1344    -0.2230 C.2     
   7 C7            -2.2112    -2.8651    -0.2627 C.2     
   8 N8            -5.5016    -1.7050     0.0484 N.2     
   9 N9            -4.8132    -0.6229     0.1531 N.2     
  10 N10           -3.4294    -2.2665    -0.1231 N.pl3   
  11 C11           -4.7105    -2.7320    -0.1210 C.2     
  12 C12           -5.1372    -4.1681    -0.2842 C.3     
  13 C13           -5.3497    -4.4714    -1.7687 C.3     
  14 C14           -5.6741    -5.9158    -2.1552 C.3     
  15 C15           -6.7639    -4.8438    -2.2183 C.3     
  16 Cl16          -2.4542     1.5919     0.3235 Cl      
  17 C17            2.9372     0.2509     2.1369 C.ar    
  18 C18            2.5724    -0.5836     3.1773 C.ar    
  19 C19            1.3485    -1.2287     3.1531 C.ar    
  20 C20            0.4855    -1.0359     2.0901 C.ar    
  21 C21            2.0785     0.4466     1.0729 C.ar    
  22 Cl22           0.8938    -2.2760     4.4608 Cl      
  23 H23           -0.1213    -2.6208    -0.3348 H       
  24 H24           -2.1535    -3.9339    -0.4066 H       
  25 H25           -4.3632    -4.8245     0.1136 H       
  26 H26           -6.0683    -4.3343     0.2575 H       
  27 H27           -4.7382    -3.8908    -2.4594 H       
  28 H28           -5.2763    -6.2854    -3.1004 H       
  29 H29           -5.7361    -6.6500    -1.3519 H       
  30 H30           -7.5430    -4.8727    -1.4564 H       
  31 H31           -7.0832    -4.5081    -3.2049 H       
  32 H32            3.8930     0.7533     2.1581 H       
  33 H33            3.2456    -0.7354     4.0081 H       
  34 H34           -0.4699    -1.5392     2.0712 H       
  35 H35            2.3645     1.0982     0.2605 H       
@<TRIPOS>BOND
   1    1    2 1
   2    1   21 ar
   3    1   20 ar
   4    2    3 1
   5    3    6 1
   6    3    5 2
   7    4    5 1
   8    4   10 1
   9    4    9 2
  10    5   16 1
  11    6    7 2
  12    6   23 1
  13    7   10 1
  14    7   24 1
  15    8    9 1
  16    8   11 2
  17   10   11 1
  18   11   12 1
  19   12   13 1
  20   12   25 1
  21   12   26 1
  22   13   14 1
  23   13   15 1
  24   13   27 1
  25   14   15 1
  26   14   28 1
  27   14   29 1
  28   15   30 1
  29   15   31 1
  30   17   18 ar
  31   17   21 ar
  32   17   32 1
  33   18   19 ar
  34   18   33 1
  35   19   20 ar
  36   19   22 1
  37   20   34 1
  38   21   35 1

#	End of record

