#	Name: ASD04170034
#	Creating user name:	WinNT
#	Creation time:	15. 06. 2019 20:48

#	Modifying user name:	WinNT
#	Modification time:	15. 06. 2019 20:48

#	Program:	/corina/corina34_cracker 3.40 0067  02.08.2006

@<TRIPOS>MOLECULE
ASD04170034
  37   39    0    0    0
SMALL
NO_CHARGES


@<TRIPOS>ATOM
   1 O1             0.3246     0.5861    -0.9753 O.2     
   2 C2            -0.0144     1.2083     0.0087 C.2     
   3 C3             0.8613     1.2501     1.1907 C.ar    
   4 C4             2.0852     0.5734     1.1830 C.ar    
   5 C5             2.9001     0.6173     2.2945 C.ar    
   6 C6             2.5094     1.3282     3.4159 C.ar    
   7 C7             1.2996     2.0004     3.4313 C.ar    
   8 C8             0.4765     1.9713     2.3255 C.ar    
   9 C9             3.4056     1.3700     4.6267 C.3     
  10 C10           -1.3296     1.9440     0.0189 C.3     
  11 C11           -1.7226     2.3118    -1.4136 C.3     
  12 N12           -3.0041     1.6911    -1.7572 N.4     
  13 C13           -4.0658     2.1761    -0.8722 C.3     
  14 C14           -3.7505     1.8031     0.5781 C.3     
  15 C15           -2.4185     1.0423     0.6149 C.3     
  16 C16           -2.5500    -0.2059    -0.2678 C.3     
  17 C17           -2.9040     0.2312    -1.6910 C.3     
  18 H18            2.3912     0.0177     0.3090 H       
  19 H19            3.8455     0.0952     2.2901 H       
  20 H20            1.0015     2.5527     4.3102 H       
  21 H21           -0.4672     2.4964     2.3390 H       
  22 H22            4.0839     2.2196     4.5475 H       
  23 H23            2.7975     1.4731     5.5254 H       
  24 H24            3.9836     0.4476     4.6829 H       
  25 H25           -1.2361     2.8509     0.6164 H       
  26 H26           -1.8113     3.3950    -1.4975 H       
  27 H27           -0.9540     1.9592    -2.1014 H       
  28 H28           -3.2379     1.9451    -2.7053 H       
  29 H29           -4.1415     3.2601    -0.9585 H       
  30 H30           -5.0141     1.7247    -1.1637 H       
  31 H31           -3.6705     2.7088     1.1792 H       
  32 H32           -4.5443     1.1691     0.9731 H       
  33 H33           -2.1659     0.7725     1.6404 H       
  34 H34           -1.6045    -0.7482    -0.2767 H       
  35 H35           -3.3384    -0.8487     0.1237 H       
  36 H36           -3.8585    -0.2101    -1.9780 H       
  37 H37           -2.1289    -0.1097    -2.3774 H       
@<TRIPOS>BOND
   1    1    2 2
   2    2    3 1
   3    2   10 1
   4    3    4 ar
   5    3    8 ar
   6    4    5 ar
   7    4   18 1
   8    5    6 ar
   9    5   19 1
  10    6    7 ar
  11    6    9 1
  12    7    8 ar
  13    7   20 1
  14    8   21 1
  15    9   22 1
  16    9   23 1
  17    9   24 1
  18   10   11 1
  19   10   15 1
  20   10   25 1
  21   11   12 1
  22   11   26 1
  23   11   27 1
  24   12   13 1
  25   12   17 1
  26   12   28 1
  27   13   14 1
  28   13   29 1
  29   13   30 1
  30   14   15 1
  31   14   31 1
  32   14   32 1
  33   15   16 1
  34   15   33 1
  35   16   17 1
  36   16   34 1
  37   16   35 1
  38   17   36 1
  39   17   37 1

#	End of record

