#	Name: ASD01884437
#	Creating user name:	WinNT
#	Creation time:	15. 06. 2019 19:48

#	Modifying user name:	WinNT
#	Modification time:	15. 06. 2019 19:48

#	Program:	/corina/corina34_cracker 3.40 0067  02.08.2006

@<TRIPOS>MOLECULE
ASD01884437
  35   37    0    0    0
SMALL
NO_CHARGES


@<TRIPOS>ATOM
   1 C1            -0.0164     1.3575     0.0095 C.2     
   2 C2             0.0021    -0.0041     0.0020 C.2     
   3 C3             1.2441    -0.6751    -0.0134 C.2     
   4 C4             2.4025     0.0466    -0.0206 C.2     
   5 N5             2.3701     1.4023    -0.0126 N.am    
   6 C6             1.1987     2.0651     0.0017 C.2     
   7 C7             1.2898    -2.1582    -0.0214 C.ar    
   8 C8             3.6266     2.1554    -0.0201 C.3     
   9 O9             1.1912     3.2856     0.0092 O.2     
  10 C10            4.0442     2.4217    -1.4434 C.ar    
  11 C11            3.6202     3.5709    -2.0843 C.ar    
  12 C12            4.0028     3.8157    -3.3896 C.ar    
  13 C13            4.8104     2.9104    -4.0549 C.ar    
  14 C14            5.2344     1.7605    -3.4129 C.ar    
  15 C15            4.8557     1.5196    -2.1057 C.ar    
  16 C16            1.0111    -2.8722     1.1415 C.ar    
  17 C17            1.6068    -2.8428    -1.1955 C.ar    
  18 C18            1.6481    -4.2243    -1.1972 C.ar    
  19 C19            1.3755    -4.9283    -0.0384 C.ar    
  20 C20            1.0553    -4.2541     1.1284 C.ar    
  21 Cl21           5.2909     3.2169    -5.6946 Cl      
  22 F22            1.8723    -2.1564    -2.3284 F       
  23 F23            0.7901    -4.9479     2.2570 F       
  24 H24           -0.9563     1.8894     0.0169 H       
  25 H25           -0.9217    -0.5635     0.0082 H       
  26 H26            3.3529    -0.4663    -0.0325 H       
  27 H27            3.4856     3.1026     0.5005 H       
  28 H28            4.4006     1.5759     0.4832 H       
  29 H29            2.9895     4.2773    -1.5650 H       
  30 H30            3.6712     4.7133    -3.8904 H       
  31 H31            5.8648     1.0535    -3.9317 H       
  32 H32            5.1867     0.6220    -1.6044 H       
  33 H33            0.7613    -2.3475     2.0518 H       
  34 H34            1.8932    -4.7551    -2.1053 H       
  35 H35            1.4082    -6.0077    -0.0444 H       
@<TRIPOS>BOND
   1    1    2 2
   2    1    6 1
   3    1   24 1
   4    2    3 1
   5    2   25 1
   6    3    4 2
   7    3    7 1
   8    4    5 1
   9    4   26 1
  10    5    6 am
  11    5    8 1
  12    6    9 2
  13    7   16 ar
  14    7   17 ar
  15    8   10 1
  16    8   27 1
  17    8   28 1
  18   10   11 ar
  19   10   15 ar
  20   11   12 ar
  21   11   29 1
  22   12   13 ar
  23   12   30 1
  24   13   14 ar
  25   13   21 1
  26   14   15 ar
  27   14   31 1
  28   15   32 1
  29   16   20 ar
  30   16   33 1
  31   17   18 ar
  32   17   22 1
  33   18   19 ar
  34   18   34 1
  35   19   20 ar
  36   19   35 1
  37   20   23 1

#	End of record

