#	Name: ASD01000056
#	Creating user name:	WinNT
#	Creation time:	15. 06. 2019 18:54

#	Modifying user name:	WinNT
#	Modification time:	15. 06. 2019 18:54

#	Program:	/corina/corina34_cracker 3.40 0067  02.08.2006

@<TRIPOS>MOLECULE
ASD01000056
  57   60    0    0    0
SMALL
NO_CHARGES


@<TRIPOS>ATOM
   1 C1             1.5297     0.3182    -2.7789 C.ar    
   2 C2             1.5961    -0.8736    -2.0817 C.ar    
   3 C3             1.1395    -0.9383    -0.7785 C.ar    
   4 C4             0.6168     0.1889    -0.1725 C.ar    
   5 C5             0.5513     1.3808    -0.8695 C.ar    
   6 C6             1.0066     1.4452    -2.1731 C.ar    
   7 C7             1.2109    -2.2378    -0.0187 C.3     
   8 C8             2.6064    -2.7988    -0.1131 C.ar    
   9 C9             0.8644    -1.9938     1.4275 C.ar    
  10 C10           -0.2359    -2.6144     1.9888 C.ar    
  11 C11           -0.5538    -2.3906     3.3153 C.ar    
  12 C12            0.2289    -1.5465     4.0807 C.ar    
  13 C13            1.3297    -0.9265     3.5196 C.ar    
  14 C14            1.6501    -1.1538     2.1943 C.ar    
  15 C15            3.6846    -1.9510    -0.2842 C.ar    
  16 C16            4.9590    -2.4724    -0.3729 C.ar    
  17 C17            5.1678    -3.8429    -0.2924 C.ar    
  18 C18            4.0943    -4.6871    -0.1160 C.ar    
  19 C19            2.8128    -4.1601    -0.0235 C.ar    
  20 S20            0.0343    -3.4203    -0.7312 S.3     
  21 C21           -1.5339    -2.5093    -0.6925 C.3     
  22 C22           -2.6686    -3.4277    -1.1505 C.3     
  23 C23            6.5827    -4.3453    -0.4128 C.3     
  24 C24            4.2480    -6.1813    -0.0034 C.3     
  25 N25           -2.4035    -3.8881    -2.5201 N.3     
  26 C26            6.6932    -5.7724     0.1200 C.3     
  27 C27            5.6056    -6.6236    -0.5457 C.3     
  28 C28           -3.9714    -2.6709    -1.1184 C.2     
  29 O29           -4.4307    -2.2153    -2.1388 O.2     
  30 O30           -4.6215    -2.5029     0.0439 O.3     
  31 H31            1.8906     0.3698    -3.7955 H       
  32 H32            2.0044    -1.7542    -2.5551 H       
  33 H33            0.2594     0.1381     0.8454 H       
  34 H34            0.1423     2.2613    -0.3962 H       
  35 H35            0.9557     2.3766    -2.7175 H       
  36 H36           -0.8474    -3.2739     1.3908 H       
  37 H37           -1.4138    -2.8749     3.7537 H       
  38 H38           -0.0199    -1.3710     5.1169 H       
  39 H39            1.9410    -0.2667     4.1175 H       
  40 H40            2.5101    -0.6694     1.7559 H       
  41 H41            3.5300    -0.8840    -0.3485 H       
  42 H42            5.8009    -1.8093    -0.5063 H       
  43 H43            1.9699    -4.8219     0.1104 H       
  44 H44           -1.7306    -2.1678     0.3237 H       
  45 H45           -1.4710    -1.6493    -1.3591 H       
  46 H46           -2.7315    -4.2878    -0.4839 H       
  47 H47            6.8820    -4.3288    -1.4608 H       
  48 H48            7.2447    -3.6957     0.1597 H       
  49 H49            4.1669    -6.4731     1.0437 H       
  50 H50            3.4571    -6.6681    -0.5739 H       
  51 H51           -3.1053    -4.5469    -2.8224 H       
  52 H52           -2.3406    -3.1086    -3.1578 H       
  53 H53            7.6757    -6.1788    -0.1203 H       
  54 H54            6.5496    -5.7729     1.2005 H       
  55 H55            5.7689    -7.6758    -0.3126 H       
  56 H56            5.6348    -6.4775    -1.6255 H       
  57 H57           -5.4533    -2.0106     0.0146 H       
@<TRIPOS>BOND
   1    1    2 ar
   2    1    6 ar
   3    1   31 1
   4    2    3 ar
   5    2   32 1
   6    3    4 ar
   7    3    7 1
   8    4    5 ar
   9    4   33 1
  10    5    6 ar
  11    5   34 1
  12    6   35 1
  13    7    8 1
  14    7    9 1
  15    7   20 1
  16    8   15 ar
  17    8   19 ar
  18    9   10 ar
  19    9   14 ar
  20   10   11 ar
  21   10   36 1
  22   11   12 ar
  23   11   37 1
  24   12   13 ar
  25   12   38 1
  26   13   14 ar
  27   13   39 1
  28   14   40 1
  29   15   16 ar
  30   15   41 1
  31   16   17 ar
  32   16   42 1
  33   17   18 ar
  34   17   23 1
  35   18   19 ar
  36   18   24 1
  37   19   43 1
  38   20   21 1
  39   21   22 1
  40   21   44 1
  41   21   45 1
  42   22   28 1
  43   22   25 1
  44   22   46 1
  45   23   26 1
  46   23   47 1
  47   23   48 1
  48   24   27 1
  49   24   49 1
  50   24   50 1
  51   25   51 1
  52   25   52 1
  53   26   27 1
  54   26   53 1
  55   26   54 1
  56   27   55 1
  57   27   56 1
  58   28   29 2
  59   28   30 1
  60   30   57 1

#	End of record

