#	Name: ASD01900500
#	Creating user name:	WinNT
#	Creation time:	15. 06. 2019 19:52

#	Modifying user name:	WinNT
#	Modification time:	15. 06. 2019 19:52

#	Program:	/corina/corina34_cracker 3.40 0067  02.08.2006

@<TRIPOS>MOLECULE
ASD01900500
  25   27    0    0    0
SMALL
NO_CHARGES


@<TRIPOS>ATOM
   1 C1            -0.0262     1.3896     0.1269 C.ar    
   2 C2             0.0064     0.0003    -0.0635 C.ar    
   3 C3             1.2218    -0.6691     0.0517 C.ar    
   4 C4             2.3512     0.0703     0.3507 C.ar    
   5 C5             2.2442     1.4425     0.5258 C.ar    
   6 N6             1.0868     2.0555     0.4131 N.ar    
   7 O7            -1.2509    -0.3999    -0.3367 O.3     
   8 N8            -2.1134     0.7199    -0.3274 N.2     
   9 C9            -1.4307     1.7960    -0.0523 C.2     
  10 N10           -1.9329     3.0870     0.0455 N.pl3   
  11 C11           -3.3112     3.3096    -0.0400 C.ar    
  12 C12           -4.2013     2.3265     0.3728 C.ar    
  13 C13           -5.5626     2.5489     0.2878 C.ar    
  14 C14           -6.0391     3.7517    -0.2094 C.ar    
  15 C15           -5.1531     4.7320    -0.6216 C.ar    
  16 C16           -3.7915     4.5160    -0.5325 C.ar    
  17 F17           -7.3702     3.9675    -0.2923 F       
  18 Cl18          -6.6762     1.3210     0.8035 Cl      
  19 H19            1.2808    -1.7383    -0.0886 H       
  20 H20            3.3101    -0.4170     0.4476 H       
  21 H21            3.1280     2.0175     0.7596 H       
  22 H22           -1.3280     3.8344     0.1731 H       
  23 H23           -3.8299     1.3890     0.7596 H       
  24 H24           -5.5265     5.6683    -1.0094 H       
  25 H25           -3.1008     5.2831    -0.8501 H       
@<TRIPOS>BOND
   1    1    2 ar
   2    1    6 ar
   3    1    9 1
   4    2    3 ar
   5    2    7 1
   6    3    4 ar
   7    3   19 1
   8    4    5 ar
   9    4   20 1
  10    5    6 ar
  11    5   21 1
  12    7    8 1
  13    8    9 2
  14    9   10 1
  15   10   11 1
  16   10   22 1
  17   11   12 ar
  18   11   16 ar
  19   12   13 ar
  20   12   23 1
  21   13   14 ar
  22   13   18 1
  23   14   15 ar
  24   14   17 1
  25   15   16 ar
  26   15   24 1
  27   16   25 1

#	End of record

