#	Name: ASD03093016
#	Creating user name:	WinNT
#	Creation time:	15. 06. 2019 20:33

#	Modifying user name:	WinNT
#	Modification time:	15. 06. 2019 20:33

#	Program:	/corina/corina34_cracker 3.40 0067  02.08.2006

@<TRIPOS>MOLECULE
ASD03093016
  52   55    0    0    0
SMALL
NO_CHARGES


@<TRIPOS>ATOM
   1 C1            -0.3113     1.4978    -0.0788 C.2     
   2 C2            -0.6436     0.1757    -0.1472 C.2     
   3 C3            -2.0063    -0.0487    -0.1786 C.2     
   4 C4            -2.7661     1.0933    -0.1354 C.2     
   5 S5            -1.7707     2.4757    -0.0470 S.3     
   6 C6            -2.5971    -1.4063    -0.2531 C.ar    
   7 C7            -3.5624    -1.6976    -1.2160 C.ar    
   8 C8            -4.1088    -2.9631    -1.2806 C.ar    
   9 C9            -3.7006    -3.9418    -0.3922 C.ar    
  10 C10           -2.7432    -3.6586     0.5654 C.ar    
  11 C11           -2.1855    -2.3983     0.6358 C.ar    
  12 N12           -4.1476     1.1195    -0.1550 N.3     
  13 C13           -4.6427     2.3949    -0.6932 C.3     
  14 C14           -6.1721     2.3580    -0.7527 C.3     
  15 O15           -6.6886     2.0841     0.5525 O.3     
  16 C16           -6.2272     0.8491     1.1067 C.3     
  17 C17           -4.6984     0.8707     1.1851 C.3     
  18 C18            1.0118     2.0051    -0.0340 C.2     
  19 O19            1.9586     1.2395    -0.0559 O.2     
  20 N20            1.2217     3.3348     0.0329 N.am    
  21 C21            2.5222     3.8315     0.1650 C.ar    
  22 C22            3.5822     3.1788    -0.4506 C.ar    
  23 C23            4.8656     3.6724    -0.3186 C.ar    
  24 C24            5.0954     4.8149     0.4254 C.ar    
  25 C25            4.0418     5.4672     1.0398 C.ar    
  26 C26            2.7558     4.9821     0.9074 C.ar    
  27 C27            6.4969     5.3502     0.5677 C.3     
  28 C28            1.6085     5.6939     1.5768 C.3     
  29 H29            0.0881    -0.6181    -0.1745 H       
  30 H30           -3.8820    -0.9342    -1.9099 H       
  31 H31           -4.8568    -3.1898    -2.0258 H       
  32 H32           -4.1313    -4.9307    -0.4462 H       
  33 H33           -2.4286    -4.4266     1.2566 H       
  34 H34           -1.4379    -2.1785     1.3836 H       
  35 H35           -4.3233     3.2116    -0.0459 H       
  36 H36           -4.2430     2.5465    -1.6958 H       
  37 H37           -6.5463     3.3220    -1.0973 H       
  38 H38           -6.4908     1.5758    -1.4418 H       
  39 H39           -6.6412     0.7218     2.1070 H       
  40 H40           -6.5474     0.0230     0.4718 H       
  41 H41           -4.3392    -0.0903     1.5536 H       
  42 H42           -4.3798     1.6630     1.8624 H       
  43 H43            0.4708     3.9472    -0.0106 H       
  44 H44            3.4035     2.2862    -1.0317 H       
  45 H45            5.6904     3.1651    -0.7968 H       
  46 H46            4.2247     6.3594     1.6203 H       
  47 H47            6.7006     6.0541    -0.2392 H       
  48 H48            6.5960     5.8584     1.5269 H       
  49 H49            7.2076     4.5253     0.5184 H       
  50 H50            1.2003     6.4431     0.8984 H       
  51 H51            0.8319     4.9724     1.8309 H       
  52 H52            1.9632     6.1809     2.4851 H       
@<TRIPOS>BOND
   1    1    2 2
   2    1   18 1
   3    1    5 1
   4    2    3 1
   5    2   29 1
   6    3    4 2
   7    3    6 1
   8    4    5 1
   9    4   12 1
  10    6    7 ar
  11    6   11 ar
  12    7    8 ar
  13    7   30 1
  14    8    9 ar
  15    8   31 1
  16    9   10 ar
  17    9   32 1
  18   10   11 ar
  19   10   33 1
  20   11   34 1
  21   12   13 1
  22   12   17 1
  23   13   14 1
  24   13   35 1
  25   13   36 1
  26   14   15 1
  27   14   37 1
  28   14   38 1
  29   15   16 1
  30   16   17 1
  31   16   39 1
  32   16   40 1
  33   17   41 1
  34   17   42 1
  35   18   19 2
  36   18   20 am
  37   20   21 1
  38   20   43 1
  39   21   22 ar
  40   21   26 ar
  41   22   23 ar
  42   22   44 1
  43   23   24 ar
  44   23   45 1
  45   24   25 ar
  46   24   27 1
  47   25   26 ar
  48   25   46 1
  49   26   28 1
  50   27   47 1
  51   27   48 1
  52   27   49 1
  53   28   50 1
  54   28   51 1
  55   28   52 1

#	End of record

