#	Name: ASD01910183
#	Creating user name:	WinNT
#	Creation time:	15. 06. 2019 19:55

#	Modifying user name:	WinNT
#	Modification time:	15. 06. 2019 19:55

#	Program:	/corina/corina34_cracker 3.40 0067  02.08.2006

@<TRIPOS>MOLECULE
ASD01910183
  43   45    0    0    0
SMALL
NO_CHARGES


@<TRIPOS>ATOM
   1 C1            -0.2187     1.3749     0.0961 C.ar    
   2 C2             0.0372     0.0375     0.3288 C.ar    
   3 C3             1.3445    -0.4332     0.3192 C.ar    
   4 C4             2.3933     0.4415     0.0757 C.ar    
   5 C5             2.1329     1.7846    -0.1577 C.ar    
   6 C6             0.8236     2.2488    -0.1467 C.ar    
   7 N7             3.1874     2.6697    -0.4032 N.am    
   8 C8             4.2614     2.2599    -1.1068 C.2     
   9 C9             5.3286     3.2219    -1.4540 C.ar    
  10 N10            1.6028    -1.7879     0.5554 N.am    
  11 C11            0.7248    -2.7233     0.1426 C.2     
  12 C12            6.4420     2.8006    -2.1826 C.ar    
  13 C13            7.4348     3.7032    -2.5042 C.ar    
  14 C14            7.3291     5.0236    -2.1059 C.ar    
  15 C15            6.2272     5.4489    -1.3828 C.ar    
  16 C16            5.2243     4.5569    -1.0596 C.ar    
  17 O17           -0.2423    -2.3996    -0.5139 O.2     
  18 O18            4.3524     1.0990    -1.4559 O.2     
  19 C19            0.9445    -4.1716     0.4968 C.3     
  20 Cl20           6.1036     7.1082    -0.8875 Cl      
  21 C21           -0.1707    -5.0047    -0.0805 C.ar    
  22 C22           -0.0498    -5.5367    -1.3506 C.ar    
  23 C23           -1.0729    -6.3009    -1.8801 C.ar    
  24 C24           -2.2166    -6.5334    -1.1393 C.ar    
  25 C25           -2.3370    -6.0021     0.1312 C.ar    
  26 C26           -1.3122    -5.2416     0.6624 C.ar    
  27 H27           -1.2361     1.7374     0.0997 H       
  28 H28           -0.7797    -0.6429     0.5187 H       
  29 H29            3.4103     0.0782     0.0680 H       
  30 H30            0.6202     3.2938    -0.3286 H       
  31 H31            3.1459     3.5787    -0.0670 H       
  32 H32            2.4139    -2.0538     1.0162 H       
  33 H33            6.5265     1.7698    -2.4937 H       
  34 H34            8.2967     3.3779    -3.0679 H       
  35 H35            8.1094     5.7259    -2.3597 H       
  36 H36            4.3652     4.8892    -0.4957 H       
  37 H37            1.8974    -4.5055     0.0862 H       
  38 H38            0.9572    -4.2826     1.5810 H       
  39 H39            0.8437    -5.3550    -1.9294 H       
  40 H40           -0.9787    -6.7159    -2.8727 H       
  41 H41           -3.0161    -7.1298    -1.5533 H       
  42 H42           -3.2307    -6.1835     0.7098 H       
  43 H43           -1.4063    -4.8265     1.6550 H       
@<TRIPOS>BOND
   1    1    2 ar
   2    1    6 ar
   3    1   27 1
   4    2    3 ar
   5    2   28 1
   6    3    4 ar
   7    3   10 1
   8    4    5 ar
   9    4   29 1
  10    5    6 ar
  11    5    7 1
  12    6   30 1
  13    7    8 am
  14    7   31 1
  15    8    9 1
  16    8   18 2
  17    9   12 ar
  18    9   16 ar
  19   10   11 am
  20   10   32 1
  21   11   17 2
  22   11   19 1
  23   12   13 ar
  24   12   33 1
  25   13   14 ar
  26   13   34 1
  27   14   15 ar
  28   14   35 1
  29   15   16 ar
  30   15   20 1
  31   16   36 1
  32   19   21 1
  33   19   37 1
  34   19   38 1
  35   21   22 ar
  36   21   26 ar
  37   22   23 ar
  38   22   39 1
  39   23   24 ar
  40   23   40 1
  41   24   25 ar
  42   24   41 1
  43   25   26 ar
  44   25   42 1
  45   26   43 1

#	End of record

