#	Name: ASD03430750
#	Creating user name:	WinNT
#	Creation time:	15. 06. 2019 20:41

#	Modifying user name:	WinNT
#	Modification time:	15. 06. 2019 20:41

#	Program:	/corina/corina34_cracker 3.40 0067  02.08.2006

@<TRIPOS>MOLECULE
ASD03430750
  29   32    0    0    0
SMALL
NO_CHARGES


@<TRIPOS>ATOM
   1 C1            -0.0167     1.3786     0.0096 C.ar    
   2 C2             0.0021    -0.0041     0.0020 C.ar    
   3 C3             1.2032    -0.6796    -0.0130 C.ar    
   4 C4             2.4080     0.0178    -0.0119 C.ar    
   5 C5             2.3798     1.4094    -0.0088 C.ar    
   6 C6             1.1749     2.0821     0.0020 C.ar    
   7 O7             3.4716    -0.8340    -0.0018 O.3     
   8 C8             1.5550    -2.1427    -0.0454 C.3     
   9 C9             3.0400    -2.1388    -0.4337 C.3     
  10 C10            0.4342    -3.8553     1.0185 C.ar    
  11 C11            1.3239    -2.8148     1.2755 C.ar    
  12 C12            0.7206    -2.9070    -1.0325 C.2     
  13 N13            0.1010    -3.8822    -0.3379 N.am    
  14 O14            0.6228    -2.6894    -2.2217 O.2     
  15 C15            1.7953    -2.5946     2.5501 C.ar    
  16 C16            1.3859    -3.4097     3.5911 C.ar    
  17 C17            0.5022    -4.4448     3.3477 C.ar    
  18 C18            0.0269    -4.6697     2.0720 C.ar    
  19 Br19           1.1520     3.9730     0.0060 Br      
  20 H20           -0.9582     1.9076     0.0170 H       
  21 H21           -0.9264    -0.5557     0.0082 H       
  22 H22            3.3056     1.9656    -0.0151 H       
  23 H23            3.1586    -2.2487    -1.5117 H       
  24 H24            3.5812    -2.9213     0.0981 H       
  25 H25           -0.5053    -4.5276    -0.7338 H       
  26 H26            2.4855    -1.7854     2.7378 H       
  27 H27            1.7560    -3.2377     4.5910 H       
  28 H28            0.1825    -5.0806     4.1600 H       
  29 H29           -0.6634    -5.4801     1.8900 H       
@<TRIPOS>BOND
   1    1    2 ar
   2    1    6 ar
   3    1   20 1
   4    2    3 ar
   5    2   21 1
   6    3    4 ar
   7    3    8 1
   8    4    5 ar
   9    4    7 1
  10    5    6 ar
  11    5   22 1
  12    6   19 1
  13    7    9 1
  14    8    9 1
  15    8   11 1
  16    8   12 1
  17    9   23 1
  18    9   24 1
  19   10   11 ar
  20   10   13 1
  21   10   18 ar
  22   11   15 ar
  23   12   13 am
  24   12   14 2
  25   13   25 1
  26   15   16 ar
  27   15   26 1
  28   16   17 ar
  29   16   27 1
  30   17   18 ar
  31   17   28 1
  32   18   29 1

#	End of record

