#	Name: ASD01908368
#	Creating user name:	WinNT
#	Creation time:	15. 06. 2019 19:55

#	Modifying user name:	WinNT
#	Modification time:	15. 06. 2019 19:55

#	Program:	/corina/corina34_cracker 3.40 0067  02.08.2006

@<TRIPOS>MOLECULE
ASD01908368
  41   44    0    0    0
SMALL
NO_CHARGES


@<TRIPOS>ATOM
   1 C1            -0.0145     1.4089     0.0534 C.ar    
   2 C2             0.0002     0.0270     0.0472 C.ar    
   3 C3             1.2045    -0.6456     0.0278 C.ar    
   4 C4             2.4044     0.0556     0.0144 C.ar    
   5 C5             2.3898     1.4319     0.0206 C.ar    
   6 C6             1.1752     2.1072     0.0401 C.ar    
   7 S7             4.0586    -0.5561    -0.0115 S.o2    
   8 N8             5.0536     0.7721    -0.0198 N.am    
   9 S9             4.0306     2.0788     0.0003 S.o2    
  10 C10            6.4523     0.7871    -0.0387 C.ar    
  11 C11            7.1339     1.9972    -0.0431 C.ar    
  12 C12            7.1596    -0.4083    -0.0473 C.ar    
  13 C13            8.5399    -0.3934    -0.0660 C.ar    
  14 C14            9.2213     0.8166    -0.0762 C.ar    
  15 C15            8.5143     2.0119    -0.0618 C.ar    
  16 N16           10.6216     0.8316    -0.0948 N.am    
  17 C17           11.2764     1.7968    -0.7702 C.2     
  18 O18           10.6550     2.5966    -1.4424 O.2     
  19 C19           12.7513     1.8829    -0.6934 C.ar    
  20 N20           13.4253     1.0059     0.0429 N.ar    
  21 C21           14.7376     1.0481     0.1376 C.ar    
  22 C22           15.4709     2.0185    -0.5342 C.ar    
  23 C23           14.8092     2.9519    -1.3126 C.ar    
  24 C24           13.4240     2.8808    -1.3993 C.ar    
  25 O25            4.1900     2.7352    -1.2499 O.2     
  26 O26            4.2251     2.7243     1.2512 O.2     
  27 O27            4.2669    -1.2085     1.2335 O.2     
  28 O28            4.2317    -1.1977    -1.2676 O.2     
  29 F29           15.3802     0.1355     0.8987 F       
  30 F30           12.7377     3.7715    -2.1483 F       
  31 H31           -0.9545     1.9406     0.0641 H       
  32 H32           -0.9282    -0.5247     0.0579 H       
  33 H33            1.2150    -1.7256     0.0233 H       
  34 H34            1.1627     3.1872     0.0446 H       
  35 H35            6.5841     2.9268    -0.0323 H       
  36 H36            6.6297    -1.3493    -0.0390 H       
  37 H37            9.0899    -1.3229    -0.0724 H       
  38 H38            9.0442     2.9529    -0.0698 H       
  39 H39           11.1203     0.1473     0.3785 H       
  40 H40           16.5473     2.0442    -0.4493 H       
  41 H41           15.3572     3.7158    -1.8442 H       
@<TRIPOS>BOND
   1    1    2 ar
   2    1    6 ar
   3    1   31 1
   4    2    3 ar
   5    2   32 1
   6    3    4 ar
   7    3   33 1
   8    4    5 ar
   9    4    7 1
  10    5    6 ar
  11    5    9 1
  12    6   34 1
  13    7    8 am
  14    7   27 2
  15    7   28 2
  16    8    9 am
  17    8   10 1
  18    9   25 2
  19    9   26 2
  20   10   11 ar
  21   10   12 ar
  22   11   15 ar
  23   11   35 1
  24   12   13 ar
  25   12   36 1
  26   13   14 ar
  27   13   37 1
  28   14   15 ar
  29   14   16 1
  30   15   38 1
  31   16   17 am
  32   16   39 1
  33   17   18 2
  34   17   19 1
  35   19   20 ar
  36   19   24 ar
  37   20   21 ar
  38   21   22 ar
  39   21   29 1
  40   22   23 ar
  41   22   40 1
  42   23   24 ar
  43   23   41 1
  44   24   30 1

#	End of record

