#	Name: ASD06710045
#	Creating user name:	WinNT
#	Creation time:	15. 06. 2019 21:08

#	Modifying user name:	WinNT
#	Modification time:	15. 06. 2019 21:08

#	Program:	/corina/corina34_cracker 3.40 0067  02.08.2006

@<TRIPOS>MOLECULE
ASD06710045
  57   59    0    0    0
SMALL
NO_CHARGES


@<TRIPOS>ATOM
   1 N1            -0.1455     1.3921    -0.3805 N.am    
   2 C2             0.0157     0.0619    -0.2360 C.2     
   3 C3            -1.2975    -0.4520     0.3198 C.3     
   4 N4            -2.1237     0.7622     0.4348 N.am    
   5 C5            -1.3636     1.7866     0.0074 C.2     
   6 C6            -3.4353     0.8359     0.8996 C.ar    
   7 C7            -3.6822     0.9484     2.2633 C.ar    
   8 C8            -4.4945     0.8024    -0.0032 C.ar    
   9 C9            -5.7916     0.8753     0.4503 C.ar    
  10 C10           -6.0468     0.9827     1.8206 C.ar    
  11 C11           -4.9796     1.0215     2.7267 C.ar    
  12 C12           -7.4353     1.0610     2.3100 C.2     
  13 O13           -7.6554     1.1545     3.5023 O.2     
  14 N14           -8.4607     1.0291     1.4359 N.am    
  15 C15           -9.8404     1.1069     1.9222 C.3     
  16 C16          -10.0410     2.4212     2.6794 C.3     
  17 C17          -10.8037     1.0502     0.7349 C.3     
  18 C18          -10.1176    -0.0695     2.8604 C.3     
  19 F19           -5.2203     1.1248     4.0521 F       
  20 C20            0.8406     2.2542    -0.8699 C.ar    
  21 C21            1.7272     2.8643     0.0104 C.ar    
  22 C22            0.9357     2.4948    -2.2363 C.ar    
  23 C23            1.9061     3.3425    -2.7221 C.ar    
  24 C24            2.7959     3.9619    -1.8398 C.ar    
  25 C25            2.7002     3.7139    -0.4679 C.ar    
  26 O26            1.0051    -0.5885    -0.4970 O.2     
  27 C27           -1.9381    -1.4494    -0.6476 C.3     
  28 C28           -1.0870    -1.0919     1.6936 C.3     
  29 S29           -1.8988     3.4120    -0.0441 S.2     
  30 C30            3.8063     4.8441    -2.3410 C.1     
  31 N31            4.6080     5.5440    -2.7386 N.1     
  32 C32            3.6571     4.3791     0.4875 C.3     
  33 F33            3.3645     3.9778     1.7954 F       
  34 F34            4.9678     4.0087     0.1683 F       
  35 F35            3.5271     5.7684     0.3859 F       
  36 H36           -2.8577     0.9781     2.9603 H       
  37 H37           -4.2978     0.7194    -1.0619 H       
  38 H38           -6.6118     0.8499    -0.2518 H       
  39 H39           -8.2852     0.9545     0.4849 H       
  40 H40           -9.8435     3.2593     2.0110 H       
  41 H41          -11.0675     2.4791     3.0412 H       
  42 H42           -9.3548     2.4616     3.5253 H       
  43 H43          -10.6608     0.1139     0.1955 H       
  44 H44          -11.8302     1.1081     1.0967 H       
  45 H45          -10.6062     1.8883     0.0665 H       
  46 H46           -9.4314    -0.0292     3.7063 H       
  47 H47          -11.1442    -0.0116     3.2222 H       
  48 H48           -9.9748    -1.0059     2.3210 H       
  49 H49            1.6527     2.6721     1.0705 H       
  50 H50            0.2479     2.0159    -2.9174 H       
  51 H51            1.9798     3.5283    -3.7834 H       
  52 H52           -1.2757    -2.3050    -0.7787 H       
  53 H53           -2.8920    -1.7871    -0.2425 H       
  54 H54           -2.1029    -0.9665    -1.6108 H       
  55 H55           -0.6544    -0.3581     2.3737 H       
  56 H56           -2.0451    -1.4314     2.0870 H       
  57 H57           -0.4114    -1.9420     1.5987 H       
@<TRIPOS>BOND
   1    1    2 am
   2    1   20 1
   3    1    5 am
   4    2    3 1
   5    2   26 2
   6    3    4 1
   7    3   27 1
   8    3   28 1
   9    4    5 am
  10    4    6 1
  11    5   29 2
  12    6    7 ar
  13    6    8 ar
  14    7   11 ar
  15    7   36 1
  16    8    9 ar
  17    8   37 1
  18    9   10 ar
  19    9   38 1
  20   10   11 ar
  21   10   12 1
  22   11   19 1
  23   12   13 2
  24   12   14 am
  25   14   15 1
  26   14   39 1
  27   15   16 1
  28   15   17 1
  29   15   18 1
  30   16   40 1
  31   16   41 1
  32   16   42 1
  33   17   43 1
  34   17   44 1
  35   17   45 1
  36   18   46 1
  37   18   47 1
  38   18   48 1
  39   20   21 ar
  40   20   22 ar
  41   21   25 ar
  42   21   49 1
  43   22   23 ar
  44   22   50 1
  45   23   24 ar
  46   23   51 1
  47   24   25 ar
  48   24   30 1
  49   25   32 1
  50   27   52 1
  51   27   53 1
  52   27   54 1
  53   28   55 1
  54   28   56 1
  55   28   57 1
  56   30   31 3
  57   32   33 1
  58   32   34 1
  59   32   35 1

#	End of record

