#	Name: ASD07301048
#	Creating user name:	WinNT
#	Creation time:	15. 06. 2019 21:10

#	Modifying user name:	WinNT
#	Modification time:	15. 06. 2019 21:10

#	Program:	/corina/corina34_cracker 3.40 0067  02.08.2006

@<TRIPOS>MOLECULE
ASD07301048
  40   42    0    0    0
SMALL
NO_CHARGES


@<TRIPOS>ATOM
   1 C1            -0.0179     1.4667     0.0101 C.2     
   2 C2             0.0021    -0.0041     0.0020 C.2     
   3 C3             1.2776    -0.6366    -0.0136 C.2     
   4 C4             2.3787     0.1588    -0.0198 C.2     
   5 N5             2.2594     1.5103    -0.0110 N.pl3   
   6 N6             1.1310     2.1179     0.0026 N.2     
   7 O7            -1.0312    -0.6548     0.0088 O.2     
   8 O8             1.3897    -1.9914    -0.0215 O.3     
   9 C9             2.7121    -2.5328    -0.0370 C.3     
  10 C10            3.4276     2.2798    -0.0170 C.ar    
  11 C11            3.9625     2.7439     1.1817 C.ar    
  12 C12            5.1176     3.5055     1.1776 C.ar    
  13 C13            5.7450     3.8083    -0.0147 C.ar    
  14 C14            5.2158     3.3475    -1.2184 C.ar    
  15 C15            4.0571     2.5763    -1.2166 C.ar    
  16 N16            7.3059     4.4741    -3.9661 N.pl3   
  17 N17            6.3192     3.7590    -4.6555 N.2     
  18 C18            5.4706     3.2786    -3.7856 C.2     
  19 C19            5.8901     3.6739    -2.5006 C.2     
  20 C20            7.0279     4.4118    -2.6480 C.2     
  21 C21            8.4468     5.1654    -4.5716 C.3     
  22 F22            3.3524     2.4504     2.3508 F       
  23 C23           -1.2917     2.1974     0.0202 C.2     
  24 O24           -2.3405     1.5880     0.0218 O.2     
  25 C25           -1.2959     3.7044     0.0284 C.3     
  26 H26            3.3609    -0.2900    -0.0316 H       
  27 H27            3.2343    -2.1905    -0.9304 H       
  28 H28            3.2516    -2.1995     0.8494 H       
  29 H29            2.6589    -3.6215    -0.0420 H       
  30 H30            5.5294     3.8645     2.1092 H       
  31 H31            6.6465     4.4030    -0.0142 H       
  32 H32            3.6467     2.2137    -2.1475 H       
  33 H33            4.5992     2.6822    -4.0125 H       
  34 H34            7.6023     4.8640    -1.8529 H       
  35 H35            8.1674     6.1930    -4.8042 H       
  36 H36            9.2838     5.1657    -3.8734 H       
  37 H37            8.7382     4.6519    -5.4879 H       
  38 H38           -0.2693     4.0706     0.0255 H       
  39 H39           -1.8150     4.0711    -0.8572 H       
  40 H40           -1.8065     4.0614     0.9227 H       
@<TRIPOS>BOND
   1    1    2 1
   2    1    6 2
   3    1   23 1
   4    2    3 1
   5    2    7 2
   6    3    4 2
   7    3    8 1
   8    4    5 1
   9    4   26 1
  10    5    6 1
  11    5   10 1
  12    8    9 1
  13    9   27 1
  14    9   28 1
  15    9   29 1
  16   10   11 ar
  17   10   15 ar
  18   11   12 ar
  19   11   22 1
  20   12   13 ar
  21   12   30 1
  22   13   14 ar
  23   13   31 1
  24   14   15 ar
  25   14   19 1
  26   15   32 1
  27   16   17 1
  28   16   20 1
  29   16   21 1
  30   17   18 2
  31   18   19 1
  32   18   33 1
  33   19   20 2
  34   20   34 1
  35   21   35 1
  36   21   36 1
  37   21   37 1
  38   23   24 2
  39   23   25 1
  40   25   38 1
  41   25   39 1
  42   25   40 1

#	End of record

