#	Name: ASD03430998
#	Creating user name:	WinNT
#	Creation time:	15. 06. 2019 20:41

#	Modifying user name:	WinNT
#	Modification time:	15. 06. 2019 20:41

#	Program:	/corina/corina34_cracker 3.40 0067  02.08.2006

@<TRIPOS>MOLECULE
ASD03430998
  49   53    0    0    0
SMALL
NO_CHARGES


@<TRIPOS>ATOM
   1 N1            -0.0178     1.4650     0.0101 N.am    
   2 C2             0.0021    -0.0041     0.0020 C.3     
   3 C3             0.8803    -0.4916     1.1586 C.3     
   4 C4             2.2627     0.1563     1.0525 C.3     
   5 C5             2.1248     1.6768     1.1584 C.3     
   6 C6             1.2607     2.1889     0.0018 C.3     
   7 C7            -1.1868     2.1359     0.0193 C.2     
   8 O8            -2.2444     1.5216     0.0210 O.co2   
   9 O9            -1.1899     3.3590     0.0260 O.co2   
  10 C10            3.1537    -0.3549     2.1863 C.3     
  11 O11            7.9209     3.1819     1.7603 O.3     
  12 C12            6.6000     2.7888     1.3419 C.3     
  13 C13            6.3722     1.4925     2.1316 C.3     
  14 C14            7.2937     1.6415     3.3122 C.ar    
  15 C15            8.1713     2.6767     3.0015 C.ar    
  16 C16            9.1354     3.0456     3.9345 C.ar    
  17 C17            9.2248     2.3849     5.1444 C.ar    
  18 C18            8.3527     1.3482     5.4394 C.ar    
  19 C19            7.3870     0.9805     4.5178 C.ar    
  20 N20            4.5103     0.1716     2.0167 N.am    
  21 C21            4.9371     1.3358     2.5453 C.2     
  22 C22            6.6851     0.2755     1.3126 C.ar    
  23 C23            7.8130    -0.1663     0.6577 C.ar    
  24 C24            7.7886    -1.3650    -0.0327 C.ar    
  25 C25            6.6291    -2.1183    -0.0633 C.ar    
  26 C26            5.4969    -1.6804     0.5915 C.ar    
  27 C27            5.5120    -0.4745     1.2883 C.ar    
  28 O28            4.2893     2.1057     3.2225 O.2     
  29 F29           10.1653     2.7498     6.0430 F       
  30 F30            8.4447     0.6995     6.6209 F       
  31 H31           -1.0118    -0.3840     0.1278 H       
  32 H32            0.4128    -0.3587    -0.9433 H       
  33 H33            0.4202    -0.2139     2.1069 H       
  34 H34            0.9816    -1.5757     1.1066 H       
  35 H35            2.7120    -0.1016     0.0934 H       
  36 H36            1.6530     1.9341     2.1067 H       
  37 H37            3.1119     2.1361     1.1062 H       
  38 H38            1.7740     2.0131    -0.9436 H       
  39 H39            1.0772     3.2560     0.1274 H       
  40 H40            2.7515    -0.0214     3.1430 H       
  41 H41            3.1813    -1.4443     2.1637 H       
  42 H42            5.8653     3.5449     1.6189 H       
  43 H43            6.5747     2.5979     0.2690 H       
  44 H44            9.8177     3.8524     3.7114 H       
  45 H45            6.7054     0.1739     4.7443 H       
  46 H46            8.7173     0.4236     0.6828 H       
  47 H47            8.6729    -1.7116    -0.5468 H       
  48 H48            6.6103    -3.0541    -0.6021 H       
  49 H49            4.5951    -2.2739     0.5625 H       
@<TRIPOS>BOND
   1    1    2 1
   2    1    6 1
   3    1    7 am
   4    2    3 1
   5    2   31 1
   6    2   32 1
   7    3    4 1
   8    3   33 1
   9    3   34 1
  10    4    5 1
  11    4   10 1
  12    4   35 1
  13    5    6 1
  14    5   36 1
  15    5   37 1
  16    6   38 1
  17    6   39 1
  18    7    8 ar
  19    7    9 ar
  20   10   20 1
  21   10   40 1
  22   10   41 1
  23   11   12 1
  24   11   15 1
  25   12   13 1
  26   12   42 1
  27   12   43 1
  28   13   14 1
  29   13   21 1
  30   13   22 1
  31   14   15 ar
  32   14   19 ar
  33   15   16 ar
  34   16   17 ar
  35   16   44 1
  36   17   18 ar
  37   17   29 1
  38   18   19 ar
  39   18   30 1
  40   19   45 1
  41   20   21 am
  42   20   27 1
  43   21   28 2
  44   22   23 ar
  45   22   27 ar
  46   23   24 ar
  47   23   46 1
  48   24   25 ar
  49   24   47 1
  50   25   26 ar
  51   25   48 1
  52   26   27 ar
  53   26   49 1

#	End of record

