#	Name: ASD01140476
#	Creating user name:	WinNT
#	Creation time:	15. 06. 2019 19:00

#	Modifying user name:	WinNT
#	Modification time:	15. 06. 2019 19:00

#	Program:	/corina/corina34_cracker 3.40 0067  02.08.2006

@<TRIPOS>MOLECULE
ASD01140476
  72   76    0    0    0
SMALL
NO_CHARGES


@<TRIPOS>ATOM
   1 C1            -0.9091     1.6554     0.6848 C.3     
   2 C2            -1.0986     0.1508     0.9177 C.3     
   3 C3            -0.3114    -0.6482    -0.1202 C.3     
   4 C4             1.1701    -0.2671    -0.0550 C.3     
   5 C5             1.3109     1.2372    -0.3081 C.3     
   6 C6             0.5748     1.9937     0.8040 C.3     
   7 C7             0.8488     3.4944     0.6746 C.3     
   8 C8             2.7861     1.6248    -0.3453 C.3     
   9 C9             2.9194     3.1237    -0.6399 C.3     
  10 C10            1.5145     3.7358    -0.6794 C.3     
  11 C11           -0.2298     5.8161     0.5318 C.3     
  12 C12           -0.3763     4.3416     0.9378 C.3     
  13 C13            1.5323     5.1700    -1.0884 C.3     
  14 C14            1.1662     6.1289     0.0650 C.3     
  15 C15            2.8594     5.7797    -1.5673 C.3     
  16 C16            2.4759     7.2879    -1.6534 C.3     
  17 C17            1.3291     7.4960    -0.6324 C.3     
  18 O18           -0.8209    -0.3724    -1.4261 O.3     
  19 H19            0.8477     1.4670    -1.2695 H       
  20 C20            2.1694     6.0984     1.2144 C.3     
  21 N21            1.6969     8.5115     0.3520 N.pl3   
  22 O22            1.0101     9.5087     0.4839 O.2     
  23 O23            2.6903     8.3607     1.0406 O.2     
  24 C24           -0.4600    -2.1445     0.1735 C.3     
  25 C25           -0.6718     4.3270     2.4155 C.ar    
  26 C26           -2.1796     3.8818     4.2216 C.ar    
  27 C27           -1.2143     4.3002     5.1287 C.ar    
  28 C28            0.0220     4.7373     4.6702 C.ar    
  29 C29            0.2895     4.7494     3.3154 C.ar    
  30 C30           -1.9055     3.8965     2.8681 C.ar    
  31 N31           -1.4882     4.2866     6.4982 N.pl3   
  32 C32           -2.8294     3.9382     6.9736 C.3     
  33 C33           -0.4342     4.6209     7.4593 C.3     
  34 H34           -1.2639     1.9102    -0.3149 H       
  35 H35           -1.4981     2.1864     1.4263 H       
  36 H36           -0.7455    -0.1040     1.9173 H       
  37 H37           -2.1581    -0.0928     0.8374 H       
  38 H38            1.5663    -0.5081     0.9301 H       
  39 H39            1.7212    -0.8155    -0.8175 H       
  40 H40            0.9475     1.6512     1.7719 H       
  41 H41            1.5928     3.7048     1.4634 H       
  42 H42            3.2495     1.4008     0.6157 H       
  43 H43            3.2915     1.0576    -1.1291 H       
  44 H44            3.5045     3.6000     0.1433 H       
  45 H45            3.4027     3.2645    -1.6054 H       
  46 H46            0.9384     3.1815    -1.4441 H       
  47 H47           -0.9451     6.0411    -0.2727 H       
  48 H48           -0.4870     6.4553     1.3873 H       
  49 H49           -1.2433     3.9182     0.4184 H       
  50 H50            0.7925     5.3123    -1.9060 H       
  51 H51            3.6679     5.6139    -0.8699 H       
  52 H52            3.1157     5.4015    -2.5583 H       
  53 H53            3.3327     7.9035    -1.3865 H       
  54 H54            2.1324     7.5252    -2.6585 H       
  55 H55            0.4060     7.7590    -1.1403 H       
  56 H56           -1.7537    -0.6001    -1.5406 H       
  57 H57            2.2713     5.0769     1.5808 H       
  58 H58            3.1368     6.4561     0.8619 H       
  59 H59            1.8168     6.7404     2.0216 H       
  60 H60           -1.5132    -2.4214     0.1251 H       
  61 H61            0.1005    -2.7172    -0.5654 H       
  62 H62           -0.0732    -2.3595     1.1696 H       
  63 H63           -3.1418     3.5414     4.5746 H       
  64 H64            0.7747     5.0633     5.3728 H       
  65 H65            1.2505     5.0889     2.9584 H       
  66 H66           -2.6557     3.5717     2.1623 H       
  67 H67           -3.4473     3.6355     6.1282 H       
  68 H68           -2.7602     3.1160     7.6859 H       
  69 H69           -3.2786     4.8038     7.4605 H       
  70 H70           -0.4459     5.6935     7.6528 H       
  71 H71           -0.6075     4.0818     8.3906 H       
  72 H72            0.5348     4.3361     7.0495 H       
@<TRIPOS>BOND
   1    1    2 1
   2    1    6 1
   3    1   34 1
   4    1   35 1
   5    2    3 1
   6    2   36 1
   7    2   37 1
   8    3    4 1
   9    3   18 1
  10    3   24 1
  11    4    5 1
  12    4   38 1
  13    4   39 1
  14    5    8 1
  15    5   19 1
  16    5    6 1
  17    6    7 1
  18    6   40 1
  19    7   10 1
  20    7   12 1
  21    7   41 1
  22    8    9 1
  23    8   42 1
  24    8   43 1
  25    9   10 1
  26    9   44 1
  27    9   45 1
  28   10   13 1
  29   10   46 1
  30   11   12 1
  31   11   14 1
  32   11   47 1
  33   11   48 1
  34   12   25 1
  35   12   49 1
  36   13   15 1
  37   13   14 1
  38   13   50 1
  39   14   20 1
  40   14   17 1
  41   15   16 1
  42   15   51 1
  43   15   52 1
  44   16   17 1
  45   16   53 1
  46   16   54 1
  47   17   21 1
  48   17   55 1
  49   18   56 1
  50   20   57 1
  51   20   58 1
  52   20   59 1
  53   21   22 2
  54   21   23 2
  55   24   60 1
  56   24   61 1
  57   24   62 1
  58   25   30 ar
  59   25   29 ar
  60   26   27 ar
  61   26   30 ar
  62   26   63 1
  63   27   28 ar
  64   27   31 1
  65   28   29 ar
  66   28   64 1
  67   29   65 1
  68   30   66 1
  69   31   32 1
  70   31   33 1
  71   32   67 1
  72   32   68 1
  73   32   69 1
  74   33   70 1
  75   33   71 1
  76   33   72 1

#	End of record

