#	Name: ASD01900857
#	Creating user name:	WinNT
#	Creation time:	15. 06. 2019 19:52

#	Modifying user name:	WinNT
#	Modification time:	15. 06. 2019 19:52

#	Program:	/corina/corina34_cracker 3.40 0067  02.08.2006

@<TRIPOS>MOLECULE
ASD01900857
  65   69    0    0    0
SMALL
NO_CHARGES


@<TRIPOS>ATOM
   1 C1             0.1353     0.8594    -0.2644 C.ar    
   2 C2             0.3164    -0.5071    -0.3023 C.ar    
   3 C3             1.5907    -1.0450    -0.4094 C.ar    
   4 C4             2.6987    -0.2200    -0.4722 C.ar    
   5 C5             2.5338     1.1536    -0.4290 C.ar    
   6 C6             1.2422     1.7022    -0.3352 C.ar    
   7 N7             3.6183     2.0228    -0.4694 N.pl3   
   8 C8             3.4304     3.3628    -1.0367 C.3     
   9 N9             2.1733     3.9427    -0.5624 N.am    
  10 C10            1.1009     3.1681    -0.3046 C.2     
  11 C11            2.0832     5.3273    -0.3725 C.ar    
  12 C12            2.6415     5.9114     0.7568 C.ar    
  13 C13            2.5526     7.2767     0.9431 C.ar    
  14 C14            1.9057     8.0648     0.0024 C.ar    
  15 C15            1.3473     7.4820    -1.1258 C.ar    
  16 C16            1.4404     6.1175    -1.3163 C.ar    
  17 O17            1.8186     9.4092     0.1865 O.3     
  18 O18            0.0253     3.6752    -0.0493 O.2     
  19 Br19           1.8144    -2.9218    -0.4695 Br      
  20 C20            1.1386    10.1594    -0.8219 C.3     
  21 C21            4.5970     4.2596    -0.6117 C.3     
  22 C22            3.4037     3.2663    -2.5647 C.3     
  23 C23            3.2764     4.6718    -3.1567 C.3     
  24 N24            4.4123     5.4933    -2.7196 N.3     
  25 C25            4.4341     5.6372    -1.2585 C.3     
  26 C26            4.3964     6.8066    -3.3777 C.3     
  27 C27            5.5114     7.6579    -2.8273 C.ar    
  28 C28            6.7897     7.5374    -3.3399 C.ar    
  29 C29            7.8140     8.3171    -2.8366 C.ar    
  30 C30            7.5604     9.2197    -1.8184 C.ar    
  31 C31            6.2785     9.3406    -1.3043 C.ar    
  32 C32            5.2538     8.5623    -1.8144 C.ar    
  33 F33            6.0286    10.2209    -0.3105 F       
  34 F34            8.5612     9.9819    -1.3257 F       
  35 C35            1.1419    11.6420    -0.4439 C.3     
  36 O36            2.4843    12.1318    -0.4489 O.3     
  37 C37            2.5997    13.5146    -0.1072 C.3     
  38 H38           -0.8589     1.2737    -0.1847 H       
  39 H39           -0.5397    -1.1632    -0.2478 H       
  40 H40            3.6880    -0.6455    -0.5542 H       
  41 H41            4.4840     1.7480    -0.1288 H       
  42 H42            3.1448     5.2979     1.4894 H       
  43 H43            2.9865     7.7311     1.8215 H       
  44 H44            0.8435     8.0961    -1.8576 H       
  45 H45            1.0098     5.6644    -2.1971 H       
  46 H46            1.6460    10.0269    -1.7774 H       
  47 H47            0.1102     9.8079    -0.9048 H       
  48 H48            4.5991     4.3646     0.4732 H       
  49 H49            5.5367     3.8133    -0.9371 H       
  50 H50            4.3266     2.8053    -2.9166 H       
  51 H51            2.5521     2.6615    -2.8765 H       
  52 H52            3.2714     4.6085    -4.2449 H       
  53 H53            2.3466     5.1268    -2.8153 H       
  54 H54            3.4995     6.0874    -0.9238 H       
  55 H55            5.2688     6.2754    -0.9687 H       
  56 H56            4.5343     6.6768    -4.4512 H       
  57 H57            3.4400     7.2950    -3.1908 H       
  58 H58            6.9883     6.8331    -4.1341 H       
  59 H59            8.8122     8.2218    -3.2376 H       
  60 H60            4.2537     8.6589    -1.4181 H       
  61 H61            0.5479    12.2023    -1.1659 H       
  62 H62            0.7143    11.7641     0.5513 H       
  63 H63            2.2023    13.6756     0.8949 H       
  64 H64            3.6488    13.8090    -0.1337 H       
  65 H65            2.0360    14.1138    -0.8223 H       
@<TRIPOS>BOND
   1    1    2 ar
   2    1    6 ar
   3    1   38 1
   4    2    3 ar
   5    2   39 1
   6    3    4 ar
   7    3   19 1
   8    4    5 ar
   9    4   40 1
  10    5    7 1
  11    5    6 ar
  12    6   10 1
  13    7    8 1
  14    7   41 1
  15    8    9 1
  16    8   22 1
  17    8   21 1
  18    9   10 am
  19    9   11 1
  20   10   18 2
  21   11   12 ar
  22   11   16 ar
  23   12   13 ar
  24   12   42 1
  25   13   14 ar
  26   13   43 1
  27   14   15 ar
  28   14   17 1
  29   15   16 ar
  30   15   44 1
  31   16   45 1
  32   17   20 1
  33   20   35 1
  34   20   46 1
  35   20   47 1
  36   21   25 1
  37   21   48 1
  38   21   49 1
  39   22   23 1
  40   22   50 1
  41   22   51 1
  42   23   24 1
  43   23   52 1
  44   23   53 1
  45   24   25 1
  46   24   26 1
  47   25   54 1
  48   25   55 1
  49   26   27 1
  50   26   56 1
  51   26   57 1
  52   27   28 ar
  53   27   32 ar
  54   28   29 ar
  55   28   58 1
  56   29   30 ar
  57   29   59 1
  58   30   31 ar
  59   30   34 1
  60   31   32 ar
  61   31   33 1
  62   32   60 1
  63   35   36 1
  64   35   61 1
  65   35   62 1
  66   36   37 1
  67   37   63 1
  68   37   64 1
  69   37   65 1

#	End of record

