#	Name: ASD01940723
#	Creating user name:	WinNT
#	Creation time:	15. 06. 2019 20:13

#	Modifying user name:	WinNT
#	Modification time:	15. 06. 2019 20:13

#	Program:	/corina/corina34_cracker 3.40 0067  02.08.2006

@<TRIPOS>MOLECULE
ASD01940723
  46   49    0    0    0
SMALL
NO_CHARGES


@<TRIPOS>ATOM
   1 C1             0.7090     0.3738     1.3703 C.ar    
   2 C2            -0.0893     0.1409     0.2655 C.ar    
   3 C3             0.3530     0.4902    -0.9990 C.ar    
   4 C4             1.5986     1.0747    -1.1633 C.ar    
   5 C5             2.4046     1.3110    -0.0575 C.ar    
   6 C6             1.9568     0.9588     1.2146 C.ar    
   7 N7             2.7657     1.1953     2.3341 N.am    
   8 S8             2.7658     0.1239     3.5968 S.o2    
   9 C9             3.3121    -1.4420     2.8618 C.3     
  10 O10            3.7532     0.6292     4.4850 O.2     
  11 O11            1.4019     0.0424     3.9873 O.2     
  12 F12           -0.4311     0.2604    -2.0749 F       
  13 F13            2.0286     1.4140    -2.3983 F       
  14 N14            3.6653     1.9016    -0.2202 N.pl3   
  15 C15            4.7647     1.1153    -0.5692 C.ar    
  16 C16            6.0374     1.6772    -0.6060 C.ar    
  17 C17            4.5877    -0.2292    -0.8739 C.ar    
  18 C18            5.6723    -1.0077    -1.2189 C.ar    
  19 C19            6.9472    -0.4460    -1.2620 C.ar    
  20 C20            7.1244     0.9016    -0.9506 C.ar    
  21 Cl21           6.2567     3.3552    -0.2186 Cl      
  22 C22            8.1149    -1.2822    -1.6329 C.ar    
  23 C23            9.3905    -0.7224    -1.6766 C.ar    
  24 C24           10.4733    -1.5052    -2.0219 C.ar    
  25 C25           10.2944    -2.8432    -2.3242 C.ar    
  26 C26            9.0307    -3.4041    -2.2825 C.ar    
  27 C27            7.9414    -2.6320    -1.9334 C.ar    
  28 C28            3.3076    -2.6824     3.7575 C.3     
  29 C29            2.2576    -2.5311     2.6549 C.3     
  30 H30            0.3587     0.1040     2.3556 H       
  31 H31           -1.0605    -0.3151     0.3894 H       
  32 H32            3.3256     1.9866     2.3693 H       
  33 H33            4.1050    -1.3609     2.1183 H       
  34 H34            3.7738     2.8567    -0.0903 H       
  35 H35            3.6000    -0.6646    -0.8402 H       
  36 H36            5.5340    -2.0524    -1.4552 H       
  37 H37            8.1115     1.3387    -0.9834 H       
  38 H38            9.5312     0.3222    -1.4411 H       
  39 H39           11.4622    -1.0724    -2.0564 H       
  40 H40           11.1446    -3.4520    -2.5942 H       
  41 H41            8.8968    -4.4492    -2.5199 H       
  42 H42            6.9551    -3.0710    -1.9011 H       
  43 H43            4.0973    -3.4176     3.6030 H       
  44 H44            2.9763    -2.5575     4.7884 H       
  45 H45            1.2357    -2.3068     2.9605 H       
  46 H46            2.3566    -3.1668     1.7751 H       
@<TRIPOS>BOND
   1    1    2 ar
   2    1    6 ar
   3    1   30 1
   4    2    3 ar
   5    2   31 1
   6    3    4 ar
   7    3   12 1
   8    4    5 ar
   9    4   13 1
  10    5    6 ar
  11    5   14 1
  12    6    7 1
  13    7    8 am
  14    7   32 1
  15    8    9 1
  16    8   10 2
  17    8   11 2
  18    9   28 1
  19    9   29 1
  20    9   33 1
  21   14   15 1
  22   14   34 1
  23   15   16 ar
  24   15   17 ar
  25   16   21 1
  26   16   20 ar
  27   17   18 ar
  28   17   35 1
  29   18   19 ar
  30   18   36 1
  31   19   20 ar
  32   19   22 1
  33   20   37 1
  34   22   23 ar
  35   22   27 ar
  36   23   24 ar
  37   23   38 1
  38   24   25 ar
  39   24   39 1
  40   25   26 ar
  41   25   40 1
  42   26   27 ar
  43   26   41 1
  44   27   42 1
  45   28   29 1
  46   28   43 1
  47   28   44 1
  48   29   45 1
  49   29   46 1

#	End of record

