#	Name: ASD01150826
#	Creating user name:	WinNT
#	Creation time:	15. 06. 2019 19:05

#	Modifying user name:	WinNT
#	Modification time:	15. 06. 2019 19:05

#	Program:	/corina/corina34_cracker 3.40 0067  02.08.2006

@<TRIPOS>MOLECULE
ASD01150826
  51   52    0    0    0
SMALL
NO_CHARGES


@<TRIPOS>ATOM
   1 N1             0.0593     1.4589     0.0682 N.3     
   2 C2            -0.4234     1.9359    -1.2359 C.3     
   3 C3             0.5085     1.4240    -2.3374 C.3     
   4 O4             0.5748    -0.0032    -2.2736 O.3     
   5 C5             1.0417    -0.5024    -1.0174 C.3     
   6 C6             0.1151    -0.0099     0.0975 C.3     
   7 C7            -0.7765     1.9758     1.1601 C.3     
   8 C8            -0.2961     1.3920     2.4903 C.3     
   9 C9             0.5037     5.4101     0.7749 C.ar    
  10 N10            0.4053     4.0885     0.7398 N.ar    
  11 C11           -0.6723     3.4785     1.2042 C.ar    
  12 C12           -1.7052     4.2382     1.7317 C.ar    
  13 C13           -1.5696     5.6174     1.7531 C.ar    
  14 N14           -0.4655     6.1649     1.2725 N.ar    
  15 C15           -2.6670     6.4829     2.3166 C.3     
  16 S16            1.9606     6.1810     0.1520 S.3     
  17 C17            1.5477     7.9184     0.4475 C.3     
  18 C18            2.7005     8.8046    -0.0286 C.3     
  19 C19            2.3515    10.2732     0.2212 C.3     
  20 C20            3.5042    11.1594    -0.2549 C.3     
  21 C21            3.1552    12.6280    -0.0051 C.3     
  22 C22            4.3080    13.5142    -0.4812 C.3     
  23 H23           -1.4323     1.5617    -1.4097 H       
  24 H24           -0.4324     3.0259    -1.2442 H       
  25 H25            0.1228     1.7273    -3.3107 H       
  26 H26            1.5052     1.8414    -2.1940 H       
  27 H27            1.0415    -1.5922    -1.0360 H       
  28 H28            2.0538    -0.1410    -0.8356 H       
  29 H29            0.4992    -0.3404     1.0625 H       
  30 H30           -0.8852    -0.4153    -0.0550 H       
  31 H31           -1.8141     1.6883     0.9908 H       
  32 H32            0.7416     1.6795     2.6596 H       
  33 H33           -0.9162     1.7756     3.3005 H       
  34 H34           -0.3715     0.3051     2.4584 H       
  35 H35           -2.5963     3.7655     2.1174 H       
  36 H36           -2.4988     6.6346     3.3829 H       
  37 H37           -2.6669     7.4469     1.8080 H       
  38 H38           -3.6292     5.9931     2.1667 H       
  39 H39            0.6416     8.1749    -0.1013 H       
  40 H40            1.3840     8.0767     1.5135 H       
  41 H41            3.6066     8.5480     0.5202 H       
  42 H42            2.8642     8.6463    -1.0945 H       
  43 H43            1.4453    10.5297    -0.3276 H       
  44 H44            2.1878    10.4315     1.2872 H       
  45 H45            4.4104    10.9029     0.2939 H       
  46 H46            3.6679    11.0011    -1.3208 H       
  47 H47            2.2491    12.8845    -0.5539 H       
  48 H48            2.9915    12.7863     1.0609 H       
  49 H49            5.2141    13.2577     0.0676 H       
  50 H50            4.4717    13.3559    -1.5471 H       
  51 H51            4.0594    14.5605    -0.3032 H       
@<TRIPOS>BOND
   1    1    2 1
   2    1    6 1
   3    1    7 1
   4    2    3 1
   5    2   23 1
   6    2   24 1
   7    3    4 1
   8    3   25 1
   9    3   26 1
  10    4    5 1
  11    5    6 1
  12    5   27 1
  13    5   28 1
  14    6   29 1
  15    6   30 1
  16    7    8 1
  17    7   11 1
  18    7   31 1
  19    8   32 1
  20    8   33 1
  21    8   34 1
  22    9   10 ar
  23    9   14 ar
  24    9   16 1
  25   10   11 ar
  26   11   12 ar
  27   12   13 ar
  28   12   35 1
  29   13   14 ar
  30   13   15 1
  31   15   36 1
  32   15   37 1
  33   15   38 1
  34   16   17 1
  35   17   18 1
  36   17   39 1
  37   17   40 1
  38   18   19 1
  39   18   41 1
  40   18   42 1
  41   19   20 1
  42   19   43 1
  43   19   44 1
  44   20   21 1
  45   20   45 1
  46   20   46 1
  47   21   22 1
  48   21   47 1
  49   21   48 1
  50   22   49 1
  51   22   50 1
  52   22   51 1

#	End of record

