#	Name: ASD00071050
#	Creating user name:	WinNT
#	Creation time:	15. 06. 2019 18:30

#	Modifying user name:	WinNT
#	Modification time:	15. 06. 2019 18:30

#	Program:	/corina/corina34_cracker 3.40 0067  02.08.2006

@<TRIPOS>MOLECULE
ASD00071050
  49   52    0    0    0
SMALL
NO_CHARGES


@<TRIPOS>ATOM
   1 N1            -0.1099     1.1192     0.4099 N.ar    
   2 C2             0.0186    -0.1618     0.1345 C.ar    
   3 C3             1.2540    -0.7125    -0.2357 C.ar    
   4 C4             2.3554     0.0851    -0.3167 C.ar    
   5 C5             2.2111     1.4565    -0.0209 C.ar    
   6 C6             3.3047     2.3323    -0.0856 C.ar    
   7 C7             3.1240     3.6664     0.2103 C.ar    
   8 C8             1.8625     4.1494     0.5734 C.ar    
   9 C9             0.7883     3.3179     0.6430 C.ar    
  10 C10            0.9364     1.9521     0.3475 C.ar    
  11 N11           -1.0947    -0.9868     0.2128 N.pl3   
  12 N12            4.2103     4.5437     0.1474 N.3     
  13 C13            3.8034     5.9121     0.4982 C.3     
  14 C14            5.0317     6.8258     0.4748 C.3     
  15 O15            5.6459     6.7574    -0.8149 O.3     
  16 C16            6.0553     5.4390    -1.1884 C.3     
  17 C17            4.8374     4.5113    -1.1819 C.3     
  18 C18            1.3631    -2.1838    -0.5428 C.3     
  19 C19            0.9989    -2.4243    -1.9852 C.ar    
  20 C20            1.9398    -2.2148    -2.9832 C.ar    
  21 C21            1.6014    -2.4370    -4.3099 C.ar    
  22 C22            0.3288    -2.8661    -4.6345 C.ar    
  23 C23           -0.6070    -3.0737    -3.6384 C.ar    
  24 C24           -0.2702    -2.8588    -2.3144 C.ar    
  25 O25            3.1907    -1.7922    -2.6615 O.3     
  26 C26            4.1073    -1.5975    -3.7404 C.3     
  27 H27            3.3147    -0.3224    -0.5999 H       
  28 H28            4.2809     1.9642    -0.3647 H       
  29 H29            1.7396     5.1978     0.8021 H       
  30 H30           -0.1785     3.7074     0.9257 H       
  31 H31           -1.9724    -0.6036     0.3673 H       
  32 H32           -0.9952    -1.9465     0.1130 H       
  33 H33            3.0697     6.2701    -0.2240 H       
  34 H34            3.3651     5.9170     1.4962 H       
  35 H35            4.7258     7.8520     0.6783 H       
  36 H36            5.7424     6.4997     1.2342 H       
  37 H37            6.4898     5.4622    -2.1878 H       
  38 H38            6.7957     5.0726    -0.4774 H       
  39 H39            5.1539     3.4935    -1.4103 H       
  40 H40            4.1202     4.8469    -1.9310 H       
  41 H41            2.3858    -2.5171    -0.3659 H       
  42 H42            0.6829    -2.7409     0.1014 H       
  43 H43            2.3319    -2.2743    -5.0886 H       
  44 H44            0.0648    -3.0393    -5.6673 H       
  45 H45           -1.6014    -3.4085    -3.8942 H       
  46 H46           -1.0016    -3.0262    -1.5376 H       
  47 H47            4.2441    -2.5375    -4.2750 H       
  48 H48            3.7107    -0.8458    -4.4228 H       
  49 H49            5.0661    -1.2607    -3.3463 H       
@<TRIPOS>BOND
   1    1    2 ar
   2    1   10 ar
   3    2    3 ar
   4    2   11 1
   5    3    4 ar
   6    3   18 1
   7    4    5 ar
   8    4   27 1
   9    5    6 ar
  10    5   10 ar
  11    6    7 ar
  12    6   28 1
  13    7    8 ar
  14    7   12 1
  15    8    9 ar
  16    8   29 1
  17    9   10 ar
  18    9   30 1
  19   11   31 1
  20   11   32 1
  21   12   13 1
  22   12   17 1
  23   13   14 1
  24   13   33 1
  25   13   34 1
  26   14   15 1
  27   14   35 1
  28   14   36 1
  29   15   16 1
  30   16   17 1
  31   16   37 1
  32   16   38 1
  33   17   39 1
  34   17   40 1
  35   18   19 1
  36   18   41 1
  37   18   42 1
  38   19   20 ar
  39   19   24 ar
  40   20   21 ar
  41   20   25 1
  42   21   22 ar
  43   21   43 1
  44   22   23 ar
  45   22   44 1
  46   23   24 ar
  47   23   45 1
  48   24   46 1
  49   25   26 1
  50   26   47 1
  51   26   48 1
  52   26   49 1

#	End of record

