#	Name: ASD01900494
#	Creating user name:	WinNT
#	Creation time:	15. 06. 2019 19:52

#	Modifying user name:	WinNT
#	Modification time:	15. 06. 2019 19:52

#	Program:	/corina/corina34_cracker 3.40 0067  02.08.2006

@<TRIPOS>MOLECULE
ASD01900494
  37   40    0    0    0
SMALL
NO_CHARGES


@<TRIPOS>ATOM
   1 C1            -0.0466     1.4543     0.4238 C.ar    
   2 C2            -0.1193     0.0729     0.5624 C.ar    
   3 C3             0.9537    -0.6262     1.0798 C.ar    
   4 C4             2.1050     0.0513     1.4614 C.ar    
   5 C5             2.1768     1.4313     1.3230 C.ar    
   6 C6             1.1042     2.1305     0.8053 C.ar    
   7 N7            -1.1321     2.1630    -0.1062 N.pl3   
   8 N8             3.1923    -0.6569     1.9856 N.pl3   
   9 C9            -1.5999     4.2750    -1.1894 C.ar    
  10 C10           -1.1262     3.5600    -0.0961 C.ar    
  11 C11           -0.6457     4.2569     1.0102 C.ar    
  12 C12           -0.6609     5.6416     0.9728 C.ar    
  13 C13           -1.1481     6.2817    -0.1514 C.ar    
  14 N14           -1.5962     5.5928    -1.1831 N.ar    
  15 C15            5.3253    -0.5890     3.3862 C.ar    
  16 C16            5.8674     0.3890     4.2418 C.ar    
  17 C17            7.0810     0.1334     4.8791 C.ar    
  18 C18            7.7019    -1.0770     4.6408 C.ar    
  19 C19            7.1096    -1.9958     3.7843 C.ar    
  20 N20            5.9656    -1.7394     3.1916 N.ar    
  21 N21            3.9180     1.1542     3.4035 N.2     
  22 N22            4.9978     1.4475     4.2427 N.pl3   
  23 C23            4.0716    -0.0306     2.8742 C.2     
  24 Cl24          -1.5584    -0.7730     0.0860 Cl      
  25 H25            0.8976    -1.6993     1.1880 H       
  26 H26            3.0717     1.9578     1.6204 H       
  27 H27            1.1607     3.2037     0.6976 H       
  28 H28           -1.8881     1.6838    -0.4802 H       
  29 H29            3.3359    -1.5822     1.7326 H       
  30 H30           -1.9707     3.7456    -2.0546 H       
  31 H31           -0.2710     3.7308     1.8757 H       
  32 H32           -0.2965     6.2146     1.8127 H       
  33 H33           -1.1624     7.3610    -0.1854 H       
  34 H34            7.5239     0.8627     5.5412 H       
  35 H35            8.6431    -1.3076     5.1177 H       
  36 H36            7.5998    -2.9406     3.6013 H       
  37 H37            5.1126     2.2693     4.7452 H       
@<TRIPOS>BOND
   1    1    2 ar
   2    1    6 ar
   3    1    7 1
   4    2    3 ar
   5    2   24 1
   6    3    4 ar
   7    3   25 1
   8    4    5 ar
   9    4    8 1
  10    5    6 ar
  11    5   26 1
  12    6   27 1
  13    7   10 1
  14    7   28 1
  15    8   23 1
  16    8   29 1
  17    9   10 ar
  18    9   14 ar
  19    9   30 1
  20   10   11 ar
  21   11   12 ar
  22   11   31 1
  23   12   13 ar
  24   12   32 1
  25   13   14 ar
  26   13   33 1
  27   15   16 ar
  28   15   20 ar
  29   15   23 1
  30   16   17 ar
  31   16   22 1
  32   17   18 ar
  33   17   34 1
  34   18   19 ar
  35   18   35 1
  36   19   20 ar
  37   19   36 1
  38   21   22 1
  39   21   23 2
  40   22   37 1

#	End of record

