#	Name: ASD02670012
#	Creating user name:	WinNT
#	Creation time:	15. 06. 2019 20:26

#	Modifying user name:	WinNT
#	Modification time:	15. 06. 2019 20:26

#	Program:	/corina/corina34_cracker 3.40 0067  02.08.2006

@<TRIPOS>MOLECULE
ASD02670012
  42   44    0    0    0
SMALL
NO_CHARGES


@<TRIPOS>ATOM
   1 C1            -0.0329     1.2034     0.1142 C.2     
   2 N2            -0.7686     3.3534     0.0774 N.am    
   3 O3            -0.0213    -0.0095     0.1212 O.2     
   4 C4             1.1702     2.1199     0.1479 C.3     
   5 N5            -3.0284     3.9979     0.0004 N.2     
   6 O6             1.1800     4.5587     0.1372 O.2     
   7 C7             0.5730     3.5092     0.1202 C.2     
   8 N8            -1.1209     1.9995     0.0689 N.am    
   9 C9            -1.7636     4.3151     0.0392 C.2     
  10 N10           -1.4089     5.6415     0.0428 N.pl3   
  11 C11           -3.4369     2.6930    -0.0216 C.ar    
  12 C12           -4.7924     2.3721    -0.0625 C.ar    
  13 C13           -5.1829     1.0472    -0.0837 C.ar    
  14 C14           -4.2377     0.0375    -0.0645 C.ar    
  15 C15           -2.8893     0.3438     0.0134 C.ar    
  16 C16           -2.4851     1.6654     0.0201 C.ar    
  17 C17            1.9715     1.9060     1.4337 C.3     
  18 C18            3.2459     2.7513     1.3869 C.3     
  19 C19            4.0472     2.5374     2.6727 C.3     
  20 C20           -1.3118     6.3704     1.3099 C.3     
  21 C21           -1.1276     6.3279    -1.2205 C.3     
  22 C22           -4.6790    -1.4033    -0.0880 C.3     
  23 H23            1.7994     1.9568    -0.7271 H       
  24 H24           -5.5348     3.1563    -0.0774 H       
  25 H25           -6.2333     0.7980    -0.1151 H       
  26 H26           -2.1540    -0.4471     0.0281 H       
  27 H27            1.3687     2.2046     2.2913 H       
  28 H28            2.2371     0.8529     1.5253 H       
  29 H29            3.8487     2.4527     0.5293 H       
  30 H30            2.9803     3.8044     1.2953 H       
  31 H31            4.9551     3.1396     2.6394 H       
  32 H32            3.4444     2.8361     3.5303 H       
  33 H33            4.3129     1.4843     2.7643 H       
  34 H34           -0.2978     6.2862     1.7007 H       
  35 H35           -1.5513     7.4207     1.1441 H       
  36 H36           -2.0142     5.9465     2.0276 H       
  37 H37           -1.1588     5.6091    -2.0393 H       
  38 H38           -1.8763     7.1021    -1.3879 H       
  39 H39           -0.1382     6.7831    -1.1742 H       
  40 H40           -4.7562    -1.7428    -1.1208 H       
  41 H41           -3.9495    -2.0154     0.4422 H       
  42 H42           -5.6506    -1.4936     0.3978 H       
@<TRIPOS>BOND
   1    1    3 2
   2    1    4 1
   3    1    8 am
   4    2    7 am
   5    2    8 1
   6    2    9 1
   7    4    7 1
   8    4   17 1
   9    4   23 1
  10    5    9 2
  11    5   11 1
  12    6    7 2
  13    8   16 1
  14    9   10 1
  15   10   20 1
  16   10   21 1
  17   11   12 ar
  18   11   16 ar
  19   12   13 ar
  20   12   24 1
  21   13   14 ar
  22   13   25 1
  23   14   15 ar
  24   14   22 1
  25   15   16 ar
  26   15   26 1
  27   17   18 1
  28   17   27 1
  29   17   28 1
  30   18   19 1
  31   18   29 1
  32   18   30 1
  33   19   31 1
  34   19   32 1
  35   19   33 1
  36   20   34 1
  37   20   35 1
  38   20   36 1
  39   21   37 1
  40   21   38 1
  41   21   39 1
  42   22   40 1
  43   22   41 1
  44   22   42 1

#	End of record

