#	Name: ASD01001255
#	Creating user name:	WinNT
#	Creation time:	15. 06. 2019 18:55

#	Modifying user name:	WinNT
#	Modification time:	15. 06. 2019 18:55

#	Program:	/corina/corina34_cracker 3.40 0067  02.08.2006

@<TRIPOS>MOLECULE
ASD01001255
  42   45    0    0    0
SMALL
NO_CHARGES


@<TRIPOS>ATOM
   1 C1            -0.0043     1.3852    -0.3467 C.ar    
   2 C2             0.0159     0.0034    -0.3923 C.ar    
   3 C3             1.2171    -0.6762    -0.3190 C.ar    
   4 C4             2.4141     0.0372    -0.1983 C.ar    
   5 C5             2.3859     1.4330    -0.1528 C.ar    
   6 C6             1.1781     2.0988    -0.2272 C.ar    
   7 C7             3.6995    -0.6807    -0.1190 C.2     
   8 N8             3.8395    -1.9615    -0.1515 N.2     
   9 N9             5.1630    -2.3916    -0.0596 N.am    
  10 C10            6.0340    -1.2157     0.0505 C.3     
  11 C11            5.0584    -0.0273     0.0066 C.3     
  12 C12            5.5740    -3.6751    -0.0694 C.2     
  13 O13            6.7548    -3.9331    -0.1736 O.2     
  14 C14            4.5668    -4.7898     0.0490 C.3     
  15 C15            6.7890    -1.2321     1.3745 C.3     
  16 C16            7.8870    -2.3025     1.3094 C.3     
  17 N17            8.8219    -1.9241     0.2411 N.pl3   
  18 C18            8.3110    -1.4981    -0.9896 C.ar    
  19 C19            6.9750    -1.1470    -1.1183 C.ar    
  20 C20            9.1580    -1.4281    -2.0899 C.ar    
  21 C21            8.6710    -1.0084    -3.3114 C.ar    
  22 C22            7.3392    -0.6574    -3.4388 C.ar    
  23 C23            6.4954    -0.7263    -2.3476 C.ar    
  24 F24            1.1489     3.4488    -0.1833 F       
  25 F25            1.2350    -2.0264    -0.3633 F       
  26 H26           -0.9455     1.9112    -0.4090 H       
  27 H27           -0.9092    -0.5461    -0.4852 H       
  28 H28            3.3063     1.9903    -0.0594 H       
  29 H29            5.2658     0.6067    -0.8554 H       
  30 H30            5.1156     0.5493     0.9299 H       
  31 H31            3.8623    -4.7326    -0.7807 H       
  32 H32            5.0824    -5.7498     0.0223 H       
  33 H33            4.0272    -4.6933     0.9912 H       
  34 H34            7.2411    -0.2558     1.5488 H       
  35 H35            6.0989    -1.4662     2.1851 H       
  36 H36            8.4145    -2.3484     2.2622 H       
  37 H37            7.4437    -3.2727     1.0853 H       
  38 H38            9.7798    -1.9686     0.3871 H       
  39 H39           10.1978    -1.7019    -1.9887 H       
  40 H40            9.3289    -0.9538    -4.1661 H       
  41 H41            6.9581    -0.3284    -4.3942 H       
  42 H42            5.4565    -0.4508    -2.4534 H       
@<TRIPOS>BOND
   1    1    2 ar
   2    1    6 ar
   3    1   26 1
   4    2    3 ar
   5    2   27 1
   6    3    4 ar
   7    3   25 1
   8    4    5 ar
   9    4    7 1
  10    5    6 ar
  11    5   28 1
  12    6   24 1
  13    7    8 2
  14    7   11 1
  15    8    9 1
  16    9   10 1
  17    9   12 am
  18   10   11 1
  19   10   15 1
  20   10   19 1
  21   11   29 1
  22   11   30 1
  23   12   13 2
  24   12   14 1
  25   14   31 1
  26   14   32 1
  27   14   33 1
  28   15   16 1
  29   15   34 1
  30   15   35 1
  31   16   17 1
  32   16   36 1
  33   16   37 1
  34   17   18 1
  35   17   38 1
  36   18   19 ar
  37   18   20 ar
  38   19   23 ar
  39   20   21 ar
  40   20   39 1
  41   21   22 ar
  42   21   40 1
  43   22   23 ar
  44   22   41 1
  45   23   42 1

#	End of record

