#	Name: ASD01840397
#	Creating user name:	WinNT
#	Creation time:	15. 06. 2019 19:37

#	Modifying user name:	WinNT
#	Modification time:	15. 06. 2019 19:37

#	Program:	/corina/corina34_cracker 3.40 0067  02.08.2006

@<TRIPOS>MOLECULE
ASD01840397
  50   53    0    0    0
SMALL
NO_CHARGES


@<TRIPOS>ATOM
   1 C1             0.2611     1.7552    -0.9980 C.ar    
   2 C2             0.3841     0.5320    -1.6195 C.ar    
   3 N3             1.4990    -0.1677    -1.4965 N.ar    
   4 N4             2.4999     0.2427    -0.8111 N.ar    
   5 C5             1.3546     2.2267    -0.2364 C.ar    
   6 C6             1.5104     3.4570     0.5171 C.2     
   7 C7             2.4928     1.4121    -0.1670 C.ar    
   8 S8             3.7250     2.1824     0.8223 S.3     
   9 C9             2.7118     3.5783     1.1344 C.2     
  10 C10           -0.9999     2.5697    -1.1313 C.3     
  11 C11           -0.7562    -0.0106    -2.4419 C.3     
  12 N12            0.5179     4.4243     0.5985 N.pl3   
  13 C13            3.1102     4.7236     1.9514 C.2     
  14 O14            2.3404     5.6527     2.1138 O.2     
  15 N15            4.3297     4.7507     2.5248 N.am    
  16 C16            5.3533     3.7015     2.4115 C.3     
  17 C17            6.5673     4.1532     3.2503 C.3     
  18 C18            5.9437     5.1661     4.2466 C.3     
  19 C19            4.8604     5.8402     3.3642 C.3     
  20 N20            5.3414     4.4755     5.3896 N.am    
  21 S21            5.3962     5.1630     6.8951 S.o2    
  22 C22            4.4393     6.6410     6.8287 C.ar    
  23 C23            3.0885     6.6035     7.1200 C.ar    
  24 C24            2.3378     7.7631     7.0678 C.ar    
  25 C25            2.9379     8.9602     6.7248 C.ar    
  26 C26            4.2889     8.9978     6.4344 C.ar    
  27 C27            5.0405     7.8390     6.4908 C.ar    
  28 O28            4.7063     4.2771     7.7661 O.2     
  29 O29            6.7429     5.5659     7.1035 O.2     
  30 H30           -1.6441     2.3852    -0.2716 H       
  31 H31           -0.7456     3.6287    -1.1742 H       
  32 H32           -1.5220     2.2841    -2.0445 H       
  33 H33           -0.6493     0.3210    -3.4747 H       
  34 H34           -0.7433    -1.1000    -2.4068 H       
  35 H35           -1.7008     0.3547    -2.0389 H       
  36 H36           -0.4028     4.1923     0.4002 H       
  37 H37            0.7452     5.3322     0.8537 H       
  38 H38            4.9640     2.7603     2.7997 H       
  39 H39            5.6473     3.5814     1.3687 H       
  40 H40            7.0044     3.3083     3.7824 H       
  41 H41            7.3116     4.6404     2.6203 H       
  42 H42            6.6839     5.8944     4.5779 H       
  43 H43            5.3043     6.6170     2.7416 H       
  44 H44            4.0700     6.2581     3.9877 H       
  45 H45            4.9105     3.6155     5.2645 H       
  46 H46            2.6196     5.6683     7.3880 H       
  47 H47            1.2823     7.7337     7.2947 H       
  48 H48            2.3512     9.8660     6.6834 H       
  49 H49            4.7577     9.9330     6.1661 H       
  50 H50            6.0967     7.8691     6.2675 H       
@<TRIPOS>BOND
   1    1    2 ar
   2    1    5 ar
   3    1   10 1
   4    2   11 1
   5    2    3 ar
   6    3    4 ar
   7    4    7 ar
   8    5    7 ar
   9    5    6 1
  10    6    9 2
  11    6   12 1
  12    7    8 1
  13    8    9 1
  14    9   13 1
  15   10   30 1
  16   10   31 1
  17   10   32 1
  18   11   33 1
  19   11   34 1
  20   11   35 1
  21   12   36 1
  22   12   37 1
  23   13   14 2
  24   13   15 am
  25   15   16 1
  26   15   19 1
  27   16   17 1
  28   16   38 1
  29   16   39 1
  30   17   18 1
  31   17   40 1
  32   17   41 1
  33   18   19 1
  34   18   20 1
  35   18   42 1
  36   19   43 1
  37   19   44 1
  38   20   21 am
  39   20   45 1
  40   21   22 1
  41   21   28 2
  42   21   29 2
  43   22   23 ar
  44   22   27 ar
  45   23   24 ar
  46   23   46 1
  47   24   25 ar
  48   24   47 1
  49   25   26 ar
  50   25   48 1
  51   26   27 ar
  52   26   49 1
  53   27   50 1

#	End of record

