#	Name: ASD03230004
#	Creating user name:	WinNT
#	Creation time:	15. 06. 2019 20:34

#	Modifying user name:	WinNT
#	Modification time:	15. 06. 2019 20:34

#	Program:	/corina/corina34_cracker 3.40 0067  02.08.2006

@<TRIPOS>MOLECULE
ASD03230004
  63   65    0    0    0
SMALL
NO_CHARGES


@<TRIPOS>ATOM
   1 C1            -0.4976    -0.1618     1.1732 C.ar    
   2 C2            -0.7908    -1.5171     1.3236 C.ar    
   3 C3            -2.1035    -1.9616     1.2368 C.ar    
   4 C4            -3.1236    -1.0663     1.0017 C.ar    
   5 C5            -2.8376     0.2956     0.8497 C.ar    
   6 C6            -1.5141     0.7434     0.9426 C.ar    
   7 C7            -3.9235     1.2530     0.5990 C.2     
   8 C8            -5.1855     0.8087     0.4081 C.2     
   9 C9            -6.2849     1.7637     0.2777 C.2     
  10 C10           -7.6433     1.2851    -0.0259 C.2     
  11 O11           -6.0766     2.9558     0.4204 O.2     
  12 C12           -7.9066    -0.1585    -0.1405 C.2     
  13 C13           -7.2353    -0.9442    -1.1750 C.2     
  14 O14           -8.6839    -0.6989     0.6267 O.2     
  15 C15           -7.5472    -2.2485    -1.3418 C.2     
  16 C16           -6.7951    -3.0666    -2.3030 C.ar    
  17 C17           -7.0400    -4.4420    -2.3974 C.ar    
  18 C18           -5.8357    -2.4722    -3.1312 C.ar    
  19 C19           -5.1324    -3.2416    -4.0317 C.ar    
  20 C20           -5.3723    -4.6064    -4.1209 C.ar    
  21 C21           -6.3303    -5.2052    -3.3029 C.ar    
  22 O22           -4.6756    -5.3596    -5.0108 O.3     
  23 O23            0.2107    -2.4049     1.5551 O.3     
  24 C24           -8.6698     2.1896    -0.2030 C.2     
  25 C25           -9.9878     1.7248    -0.6366 C.ar    
  26 C26          -11.1445     2.4066    -0.2281 C.ar    
  27 C27          -10.0995     0.5997    -1.4668 C.ar    
  28 C28          -11.3408     0.1658    -1.8729 C.ar    
  29 C29          -12.4852     0.8392    -1.4630 C.ar    
  30 C30          -12.3833     1.9632    -0.6410 C.ar    
  31 O31          -13.7062     0.4060    -1.8677 O.3     
  32 O32           -6.5615    -6.5423    -3.3934 O.3     
  33 C33           -7.5566    -7.0888    -2.5256 C.3     
  34 O34          -13.5067     2.6179    -0.2426 O.3     
  35 C35          -13.3286     3.7599     0.5976 C.3     
  36 O36            0.7895     0.2688     1.2595 O.3     
  37 C37            1.0171     1.6700     1.0956 C.3     
  38 H38           -2.3252    -3.0121     1.3536 H       
  39 H39           -4.1435    -1.4149     0.9344 H       
  40 H40           -1.2882     1.7931     0.8261 H       
  41 H41           -3.7133     2.3119     0.5672 H       
  42 H42           -5.3818    -0.2518     0.3518 H       
  43 H43           -6.4903    -0.4821    -1.8057 H       
  44 H44           -8.3492    -2.6896    -0.7686 H       
  45 H45           -7.7818    -4.9047    -1.7633 H       
  46 H46           -5.6472    -1.4109    -3.0643 H       
  47 H47           -4.3927    -2.7819    -4.6705 H       
  48 H48           -3.8539    -5.7266    -4.6571 H       
  49 H49            0.4037    -2.5444     2.4923 H       
  50 H50           -8.5006     3.2407    -0.0217 H       
  51 H51          -11.0647     3.2758     0.4080 H       
  52 H52           -9.2119     0.0744    -1.7873 H       
  53 H53          -11.4258    -0.7003    -2.5123 H       
  54 H54          -14.1113    -0.2401    -1.2731 H       
  55 H55           -7.2721    -6.9103    -1.4886 H       
  56 H56           -8.5157    -6.6115    -2.7265 H       
  57 H57           -7.6410    -8.1615    -2.6997 H       
  58 H58          -12.8232     3.4603     1.5157 H       
  59 H59          -12.7254     4.5036     0.0769 H       
  60 H60          -14.3014     4.1870     0.8412 H       
  61 H61            0.6693     1.9819     0.1107 H       
  62 H62            0.4725     2.2189     1.8639 H       
  63 H63            2.0831     1.8781     1.1871 H       
@<TRIPOS>BOND
   1    1    2 ar
   2    1   36 1
   3    1    6 ar
   4    2    3 ar
   5    2   23 1
   6    3    4 ar
   7    3   38 1
   8    4    5 ar
   9    4   39 1
  10    5    6 ar
  11    5    7 1
  12    6   40 1
  13    7    8 2
  14    7   41 1
  15    8    9 1
  16    8   42 1
  17    9   10 1
  18    9   11 2
  19   10   12 1
  20   10   24 2
  21   12   13 1
  22   12   14 2
  23   13   15 2
  24   13   43 1
  25   15   16 1
  26   15   44 1
  27   16   17 ar
  28   16   18 ar
  29   17   21 ar
  30   17   45 1
  31   18   19 ar
  32   18   46 1
  33   19   20 ar
  34   19   47 1
  35   20   21 ar
  36   20   22 1
  37   21   32 1
  38   22   48 1
  39   23   49 1
  40   24   25 1
  41   24   50 1
  42   25   26 ar
  43   25   27 ar
  44   26   30 ar
  45   26   51 1
  46   27   28 ar
  47   27   52 1
  48   28   29 ar
  49   28   53 1
  50   29   30 ar
  51   29   31 1
  52   30   34 1
  53   31   54 1
  54   32   33 1
  55   33   55 1
  56   33   56 1
  57   33   57 1
  58   34   35 1
  59   35   58 1
  60   35   59 1
  61   35   60 1
  62   36   37 1
  63   37   61 1
  64   37   62 1
  65   37   63 1

#	End of record

