#	Name: ASD01913033
#	Creating user name:	WinNT
#	Creation time:	15. 06. 2019 20:00

#	Modifying user name:	WinNT
#	Modification time:	15. 06. 2019 20:00

#	Program:	/corina/corina34_cracker 3.40 0067  02.08.2006

@<TRIPOS>MOLECULE
ASD01913033
  32   32    0    0    0
SMALL
NO_CHARGES


@<TRIPOS>ATOM
   1 C1            -0.0169     1.3951     0.0097 C.ar    
   2 C2             0.0021    -0.0041     0.0020 C.ar    
   3 C3            -1.2594    -0.7592     0.0095 C.2     
   4 C4            -2.5762    -0.0264     0.0255 C.3     
   5 O5            -1.2404    -1.9717     0.0028 O.2     
   6 C6            -3.7060    -1.0236     0.0305 C.2     
   7 C7            -5.1345    -0.5437     0.0462 C.3     
   8 O8            -3.4667    -2.2072     0.0220 O.2     
   9 C9            -6.0398    -1.6173    -0.5609 C.3     
  10 C10           -5.5647    -0.2699     1.4887 C.3     
  11 C11            1.2259    -0.6817    -0.0133 C.ar    
  12 C12            2.4078     0.0350    -0.0207 C.ar    
  13 C13            2.3789     1.4262    -0.0125 C.ar    
  14 C14            1.1675     2.0993     0.0022 C.ar    
  15 F15            3.5361     2.1233    -0.0194 F       
  16 O16            3.5993    -0.6197    -0.0356 O.3     
  17 C17            3.5547    -2.0480    -0.0429 C.3     
  18 H18           -0.9592     1.9227     0.0171 H       
  19 H19           -2.6356     0.5945     0.9194 H       
  20 H20           -2.6519     0.6041    -0.8604 H       
  21 H21           -5.2162     0.3731    -0.5376 H       
  22 H22           -5.9581    -2.5342     0.0229 H       
  23 H23           -7.0730    -1.2703    -0.5496 H       
  24 H24           -5.7333    -1.8124    -1.5886 H       
  25 H25           -5.4830    -1.1867     2.0725 H       
  26 H26           -4.9197     0.4950     1.9212 H       
  27 H27           -6.5979     0.0772     1.5000 H       
  28 H28            1.2472    -1.7615    -0.0190 H       
  29 H29            1.1518     3.1792     0.0089 H       
  30 H30            4.5705    -2.4431    -0.0547 H       
  31 H31            3.0383    -2.3999     0.8502 H       
  32 H32            3.0213    -2.3903    -0.9297 H       
@<TRIPOS>BOND
   1    1    2 ar
   2    1   14 ar
   3    1   18 1
   4    2    3 1
   5    2   11 ar
   6    3    4 1
   7    3    5 2
   8    4    6 1
   9    4   19 1
  10    4   20 1
  11    6    7 1
  12    6    8 2
  13    7    9 1
  14    7   10 1
  15    7   21 1
  16    9   22 1
  17    9   23 1
  18    9   24 1
  19   10   25 1
  20   10   26 1
  21   10   27 1
  22   11   12 ar
  23   11   28 1
  24   12   13 ar
  25   12   16 1
  26   13   14 ar
  27   13   15 1
  28   14   29 1
  29   16   17 1
  30   17   30 1
  31   17   31 1
  32   17   32 1

#	End of record

