#	Name: ASD07110004
#	Creating user name:	WinNT
#	Creation time:	15. 06. 2019 21:08

#	Modifying user name:	WinNT
#	Modification time:	15. 06. 2019 21:08

#	Program:	/corina/corina34_cracker 3.40 0067  02.08.2006

@<TRIPOS>MOLECULE
ASD07110004
 283  288    0    0    0
SMALL
NO_CHARGES


@<TRIPOS>ATOM
   1 C1             0.3792    -5.3525   -17.1160 C.2     
   2 O2             0.5876    -6.4733   -16.7021 O.2     
   3 N3             2.7717    -5.1929   -17.5106 N.3     
   4 C4             1.4676    -4.6020   -17.8395 C.3     
   5 C5             1.2328    -4.6923   -19.3486 C.3     
   6 C6             2.2640    -3.8285   -20.0778 C.3     
   7 C7             2.0292    -3.9188   -21.5869 C.3     
   8 C8             3.0604    -3.0551   -22.3160 C.3     
   9 N9             2.8349    -3.1417   -23.7650 N.3     
  10 C10           -3.2310    -4.9883   -16.6728 C.2     
  11 O11           -3.2969    -4.0919   -17.4870 O.2     
  12 N12           -0.8273    -4.7803   -16.9338 N.am    
  13 C13           -1.8872    -5.5121   -16.2358 C.3     
  14 C14           -1.7311    -5.3194   -14.7261 C.3     
  15 C15           -0.4420    -5.9526   -14.2695 C.2     
  16 C16           -0.2936    -7.1889   -13.7679 C.2     
  17 N17            1.0215    -7.4146   -13.4648 N.pl3   
  18 C18            1.7705    -6.3008   -13.7719 C.ar    
  19 C19            3.1240    -5.9983   -13.6672 C.ar    
  20 C20            3.5823    -4.7628   -14.0697 C.ar    
  21 C21            2.7063    -3.8146   -14.5796 C.ar    
  22 C22            1.3725    -4.0905   -14.6908 C.ar    
  23 C23            0.8875    -5.3382   -14.2949 C.ar    
  24 C24           -6.6828    -5.2685   -15.5025 C.2     
  25 O25           -6.5216    -6.1878   -14.7280 O.2     
  26 N26           -4.3596    -5.5160   -16.1587 N.am    
  27 C27           -5.6659    -5.0067   -16.5835 C.3     
  28 C28           -6.0955    -5.7146   -17.8700 C.3     
  29 C29           -5.1570    -5.3387   -18.9876 C.ar    
  30 C30           -4.0246    -6.0967   -19.2222 C.ar    
  31 C31           -3.1625    -5.7539   -20.2458 C.ar    
  32 C32           -3.4339    -4.6485   -21.0388 C.ar    
  33 O33           -2.5876    -4.3095   -22.0466 O.3     
  34 C34           -4.5710    -3.8899   -20.8016 C.ar    
  35 C35           -5.4327    -4.2399   -19.7801 C.ar    
  36 C36           -9.5306    -6.0253   -14.7178 C.2     
  37 O37           -9.1012    -6.7468   -15.5929 O.2     
  38 N38           -7.7715    -4.4811   -15.3964 N.am    
  39 C39           -8.8892    -4.6855   -14.4635 C.3     
  40 C40           -9.9111    -3.5576   -14.7186 C.3     
  41 C41           -9.5784    -3.1081   -16.1659 C.3     
  42 C42           -8.0357    -3.2685   -16.1923 C.3     
  43 C43          -12.3486    -7.9240   -13.2592 C.2     
  44 O44          -12.6166    -7.0632   -12.4479 O.2     
  45 N45          -10.5814    -6.4217   -13.9727 N.am    
  46 C46          -11.2048    -7.7241   -14.2199 C.3     
  47 C47          -14.4274   -10.7284   -12.1743 C.2     
  48 O48          -13.7388   -11.5376   -12.7590 O.2     
  49 N49          -13.0737    -9.0593   -13.3016 N.am    
  50 C50          -14.1856    -9.2535   -12.3677 C.3     
  51 C51          -15.4476    -8.5998   -12.9342 C.3     
  52 S52          -15.1566    -6.8245   -13.1669 S.3     
  53 C53          -16.7877   -12.7818   -10.2030 C.2     
  54 O54          -17.3511   -11.8212    -9.7226 O.2     
  55 N55          -15.4089   -11.1482   -11.3516 N.am    
  56 C56          -15.6440   -12.5819   -11.1636 C.3     
  57 C57          -18.5383   -15.6971    -8.7504 C.2     
  58 O58          -17.8496   -16.5063    -9.3351 O.2     
  59 N59          -17.1846   -14.0280    -9.8776 N.am    
  60 C60          -18.2965   -14.2223    -8.9437 C.3     
  61 C61          -20.8986   -17.7505    -6.7790 C.2     
  62 O62          -21.4620   -16.7899    -6.2987 O.2     
  63 N63          -19.5198   -16.1169    -7.9277 N.am    
  64 C64          -19.7549   -17.5507    -7.7397 C.3     
  65 C65          -22.6492   -20.6659    -5.3264 C.2     
  66 O66          -21.9605   -21.4751    -5.9111 O.2     
  67 N67          -21.2955   -18.9968    -6.4537 N.am    
  68 C68          -22.4074   -19.1910    -5.5198 C.3     
  69 C69          -25.0095   -22.7193    -3.3551 C.2     
  70 O70          -25.5729   -21.7587    -2.8747 O.2     
  71 N71          -23.6307   -21.0857    -4.5037 N.am    
  72 C72          -23.8658   -22.5195    -4.3157 C.3     
  73 C73          -26.3866   -25.5058    -1.4310 C.2     
  74 O74          -25.4557   -26.2314    -1.7099 O.2     
  75 N75          -25.4064   -23.9655    -3.0297 N.am    
  76 C76          -26.5183   -24.1598    -2.0958 C.3     
  77 C77          -27.8427   -24.0953    -2.8592 C.3     
  78 C78          -28.0345   -22.6888    -3.4299 C.3     
  79 C79          -29.3390   -22.6253    -4.1818 C.2     
  80 O80          -30.0457   -23.6083    -4.2541 O.2     
  81 N81          -29.7202   -21.4762    -4.7739 N.am    
  82 C82          -28.5333   -27.6837     0.5719 C.2     
  83 O83          -29.5117   -26.9948     0.3739 O.2     
  84 N84          -27.3034   -25.9033    -0.5266 N.am    
  85 C85          -27.1754   -27.2118     0.1196 C.3     
  86 C86          -26.2471   -27.0942     1.3301 C.3     
  87 C87          -24.8365   -26.7362     0.8581 C.3     
  88 C88          -23.9221   -26.6203     2.0503 C.2     
  89 O89          -24.3543   -26.8051     3.1634 O.2     
  90 O90          -22.6274   -26.3118     1.8758 O.3     
  91 C91          -29.9112   -30.1838     2.8094 C.2     
  92 O92          -28.8400   -30.3562     3.3514 O.2     
  93 N93          -28.6605   -28.8712     1.1964 N.am    
  94 C94          -29.9911   -29.3812     1.5365 C.3     
  95 C95          -30.5008   -30.2728     0.4025 C.3     
  96 C96          -29.4599   -31.3510     0.0944 C.3     
  97 C97          -29.3661   -32.3212     1.2738 C.3     
  98 C98          -30.7395   -29.4225    -0.8469 C.3     
  99 C99          -31.6739   -32.8661     4.2546 C.2     
 100 O100         -32.2180   -33.0429     3.1852 O.2     
 101 N101         -31.0302   -30.7101     3.3456 N.am    
 102 C102         -30.9404   -31.5773     4.5229 C.3     
 103 C103         -31.5716   -30.8721     5.7251 C.3     
 104 C104         -30.7312   -29.6808     6.1068 C.2     
 105 O105         -29.7617   -29.3844     5.4412 O.2     
 106 N106         -31.0570   -28.9449     7.1879 N.am    
 107 C107         -33.9673   -34.7416     5.3338 C.2     
 108 O108         -34.2888   -33.6397     5.7254 O.2     
 109 N109         -31.7252   -33.8224     5.2030 N.am    
 110 C110         -32.5293   -35.0275     4.9854 C.3     
 111 C111         -32.0045   -36.1579     5.8729 C.3     
 112 C112         -30.6141   -36.5378     5.4329 C.2     
 113 O113         -30.1333   -36.0338     4.4401 O.2     
 114 N114         -29.9050   -37.4378     6.1426 N.am    
 115 C115         -36.9853   -36.7182     5.9233 C.2     
 116 O116         -36.3709   -37.7637     5.9086 O.2     
 117 N117         -34.8960   -35.7104     5.2103 N.am    
 118 C118         -36.2940   -35.4325     5.5491 C.3     
 119 C119         -36.9968   -34.8082     4.3420 C.3     
 120 C120         -36.3841   -33.4641     4.0437 C.2     
 121 C121         -35.8669   -33.0746     2.8628 C.2     
 122 N122         -35.4226   -31.7906     3.0292 N.pl3   
 123 C123         -35.6838   -31.4400     4.3069 C.2     
 124 N124         -36.2634   -32.4440     4.9062 N.2     
 125 C125         -40.4391   -37.8205     6.3918 C.2     
 126 O126         -40.8886   -36.7821     5.9553 O.2     
 127 N127         -38.2865   -36.7062     6.2744 N.am    
 128 C128         -38.9586   -37.9561     6.6383 C.3     
 129 C129         -38.7132   -38.2549     8.1186 C.3     
 130 C130         -37.2229   -38.5156     8.3461 C.3     
 131 C131         -36.9585   -38.6912     9.8428 C.3     
 132 C132         -36.8083   -39.7868     7.6024 C.3     
 133 C133         -43.4504   -39.6792     7.3086 C.2     
 134 O134         -42.8395   -40.4660     8.0004 O.2     
 135 N135         -41.2637   -38.8532     6.6566 N.am    
 136 C136         -42.7030   -38.7214     6.4170 C.3     
 137 C137         -43.0079   -39.0439     4.9528 C.3     
 138 C138         -42.2766   -38.0497     4.0485 C.3     
 139 O139         -42.5681   -40.3707     4.6557 O.3     
 140 C140         -45.7051   -41.9117     7.2939 C.2     
 141 O141         -45.2676   -41.9599     6.1686 O.2     
 142 N142         -44.7977   -39.6614     7.3372 N.am    
 143 C143         -45.5271   -40.6631     8.1187 C.3     
 144 C144         -46.8992   -40.1079     8.5060 C.3     
 145 C145         -46.7221   -38.9317     9.4314 C.2     
 146 C146         -47.2256   -37.6965     9.2465 C.2     
 147 N147         -46.8284   -36.9424    10.3176 N.pl3   
 148 C148         -46.0954   -37.7437    11.1204 C.2     
 149 N149         -46.0403   -38.9333    10.5865 N.2     
 150 O150         -46.3496   -42.9704     7.8092 O.3     
 151 H151           2.8091    -6.1627   -17.7864 H       
 152 H152           3.5232    -4.6678   -17.9320 H       
 153 H153           1.4544    -3.5565   -17.5316 H       
 154 H154           1.3340    -5.7287   -19.6708 H       
 155 H155           0.2297    -4.3355   -19.5823 H       
 156 H156           2.1627    -2.7922   -19.7556 H       
 157 H157           3.2671    -4.1853   -19.8441 H       
 158 H158           2.1304    -4.9552   -21.9090 H       
 159 H159           1.0261    -3.5620   -21.8206 H       
 160 H160           2.9591    -2.0187   -21.9939 H       
 161 H161           4.0635    -3.4118   -22.0824 H       
 162 H162           3.5039    -2.5794   -24.2693 H       
 163 H163           2.8596    -4.1006   -24.0781 H       
 164 H164          -0.9939    -3.8838   -17.2648 H       
 165 H165          -1.8152    -6.5729   -16.4761 H       
 166 H166          -1.7141    -4.2541   -14.4956 H       
 167 H167          -2.5690    -5.7892   -14.2112 H       
 168 H168          -1.0937    -7.8999   -13.6244 H       
 169 H169           1.3737    -8.2368   -13.0896 H       
 170 H170           3.8135    -6.7293   -13.2713 H       
 171 H171           4.6336    -4.5297   -13.9873 H       
 172 H172           3.0818    -2.8509   -14.8906 H       
 173 H173           0.6967    -3.3476   -15.0881 H       
 174 H174          -4.3069    -6.2329   -15.5074 H       
 175 H175          -5.5963    -3.9342   -16.7648 H       
 176 H176          -6.0660    -6.7936   -17.7182 H       
 177 H177          -7.1098    -5.4119   -18.1300 H       
 178 H178          -3.8138    -6.9572   -18.6045 H       
 179 H179          -2.2778    -6.3458   -20.4282 H       
 180 H180          -2.8002    -4.7228   -22.8946 H       
 181 H181          -4.7843    -3.0286   -21.4174 H       
 182 H182          -6.3203    -3.6522   -19.5979 H       
 183 H183          -8.5283    -4.6365   -13.4362 H       
 184 H184         -10.9302    -3.9395   -14.6581 H       
 185 H185          -9.7633    -2.7371   -14.0164 H       
 186 H186         -10.0550    -3.7610   -16.8971 H       
 187 H187          -9.8642    -2.0687   -16.3277 H       
 188 H188          -7.5541    -2.4033   -15.7366 H       
 189 H189          -7.6861    -3.4030   -17.2159 H       
 190 H190         -10.9248    -5.8446   -13.2727 H       
 191 H191         -10.4670    -8.5134   -14.0756 H       
 192 H192         -11.5792    -7.7594   -15.2429 H       
 193 H193         -12.8594    -9.7477   -13.9504 H       
 194 H194         -13.9390    -8.7970   -11.4091 H       
 195 H195         -15.6943    -9.0563   -13.8927 H       
 196 H196         -16.2749    -8.7443   -12.2393 H       
 197 H197         -16.3289    -6.3879   -13.6609 H       
 198 H198         -15.9597   -10.5010   -10.8839 H       
 199 H199         -14.7449   -13.0477   -10.7601 H       
 200 H200         -15.8906   -13.0384   -12.1222 H       
 201 H201         -16.7341   -14.7963   -10.2618 H       
 202 H202         -19.1956   -13.7565    -9.3473 H       
 203 H203         -18.0499   -13.7658    -7.9851 H       
 204 H204         -20.0706   -15.4698    -7.4600 H       
 205 H205         -18.8558   -18.0164    -7.3361 H       
 206 H206         -20.0015   -18.0072    -8.6983 H       
 207 H207         -20.8449   -19.7651    -6.8378 H       
 208 H208         -23.3065   -18.7253    -5.9233 H       
 209 H209         -22.1608   -18.7345    -4.5612 H       
 210 H210         -24.1815   -20.4385    -4.0360 H       
 211 H211         -22.9667   -22.9852    -3.9122 H       
 212 H212         -24.1124   -22.9759    -5.2743 H       
 213 H213         -24.9558   -24.7338    -3.4139 H       
 214 H214         -26.4973   -23.3767    -1.3379 H       
 215 H215         -27.8280   -24.8192    -3.6740 H       
 216 H216         -28.6643   -24.3277    -2.1816 H       
 217 H217         -28.0492   -21.9650    -2.6150 H       
 218 H218         -27.2129   -22.4564    -4.1075 H       
 219 H219         -29.1550   -20.6900    -4.7161 H       
 220 H220         -30.5599   -21.4353    -5.2579 H       
 221 H221         -28.0480   -25.3230    -0.3036 H       
 222 H222         -26.7594   -27.9279    -0.5891 H       
 223 H223         -26.6161   -26.3146     1.9965 H       
 224 H224         -26.2218   -28.0451     1.8623 H       
 225 H225         -24.4675   -27.5158     0.1916 H       
 226 H226         -24.8618   -25.7853     0.3259 H       
 227 H227         -22.0802   -26.2487     2.6705 H       
 228 H228         -27.8711   -29.3883     1.4207 H       
 229 H229         -30.6759   -28.5447     1.6768 H       
 230 H230         -31.4354   -30.7457     0.7041 H       
 231 H231         -29.7559   -31.8962    -0.8019 H       
 232 H232         -28.4893   -30.8828    -0.0691 H       
 233 H233         -30.3688   -32.6219     1.5775 H       
 234 H234         -28.7974   -33.2019     0.9754 H       
 235 H235         -28.8653   -31.8309     2.1086 H       
 236 H236         -29.7881   -29.0311    -1.2072 H       
 237 H237         -31.1967   -30.0368    -1.6226 H       
 238 H238         -31.4035   -28.5939    -0.6011 H       
 239 H239         -31.8949   -30.5147     2.9520 H       
 240 H240         -29.8935   -31.7928     4.7366 H       
 241 H241         -32.5764   -30.5395     5.4648 H       
 242 H242         -31.6242   -31.5640     6.5657 H       
 243 H243         -31.8324   -29.1820     7.7202 H       
 244 H244         -30.5161   -28.1781     7.4336 H       
 245 H245         -31.2297   -33.7127     6.0297 H       
 246 H246         -32.4613   -35.3256     3.9392 H       
 247 H247         -31.9787   -35.8234     6.9100 H       
 248 H248         -32.6621   -37.0229     5.7864 H       
 249 H249         -30.2896   -37.8409     6.9367 H       
 250 H250         -29.0101   -37.6823     5.8594 H       
 251 H251         -34.6389   -36.5917     4.8972 H       
 252 H252         -36.3333   -34.7406     6.3904 H       
 253 H253         -36.8808   -35.4605     3.4765 H       
 254 H254         -38.0568   -34.6832     4.5632 H       
 255 H255         -35.8128   -33.6624     1.9584 H       
 256 H256         -34.9991   -31.2362     2.3553 H       
 257 H257         -35.4548   -30.4853     4.7571 H       
 258 H258         -38.7780   -35.8700     6.2863 H       
 259 H259         -38.5626   -38.7712     6.0326 H       
 260 H260         -39.0285   -37.4013     8.7187 H       
 261 H261         -39.2850   -39.1356     8.4111 H       
 262 H262         -36.6449   -37.6708     7.9716 H       
 263 H263         -37.5364   -39.5360    10.2172 H       
 264 H264         -35.8967   -38.8769    10.0048 H       
 265 H265         -37.2539   -37.7855    10.3726 H       
 266 H266         -36.9966   -39.6618     6.5361 H       
 267 H267         -35.7465   -39.9726     7.7644 H       
 268 H268         -37.3862   -40.6317     7.9768 H       
 269 H269         -40.9042   -39.6837     7.0057 H       
 270 H270         -43.0159   -37.7007     6.6370 H       
 271 H271         -44.0816   -38.9699     4.7805 H       
 272 H272         -41.2007   -38.1988     4.1400 H       
 273 H273         -42.5788   -38.2096     3.0136 H       
 274 H274         -42.5291   -37.0325     4.3479 H       
 275 H275         -42.9911   -41.0547     5.1927 H       
 276 H276         -45.2845   -38.9853     6.8403 H       
 277 H277         -44.9635   -40.9009     9.0209 H       
 278 H278         -47.4280   -39.7875     7.6083 H       
 279 H279         -47.4758   -40.8833     9.0102 H       
 280 H280         -47.8270   -37.3645     8.4131 H       
 281 H281         -47.0348   -36.0072    10.4714 H       
 282 H282         -45.6347   -37.4499    12.0519 H       
 283 H283         -46.4391   -43.7486     7.2422 H       
@<TRIPOS>BOND
   1    1    2 2
   2    1    4 1
   3    1   12 am
   4    3    4 1
   5    3  151 1
   6    3  152 1
   7    4    5 1
   8    4  153 1
   9    5    6 1
  10    5  154 1
  11    5  155 1
  12    6    7 1
  13    6  156 1
  14    6  157 1
  15    7    8 1
  16    7  158 1
  17    7  159 1
  18    8    9 1
  19    8  160 1
  20    8  161 1
  21    9  162 1
  22    9  163 1
  23   10   11 2
  24   10   13 1
  25   10   26 am
  26   12   13 1
  27   12  164 1
  28   13   14 1
  29   13  165 1
  30   14   15 1
  31   14  166 1
  32   14  167 1
  33   15   16 2
  34   15   23 1
  35   16   17 1
  36   16  168 1
  37   17   18 1
  38   17  169 1
  39   18   19 ar
  40   18   23 ar
  41   19   20 ar
  42   19  170 1
  43   20   21 ar
  44   20  171 1
  45   21   22 ar
  46   21  172 1
  47   22   23 ar
  48   22  173 1
  49   24   25 2
  50   24   27 1
  51   24   38 am
  52   26   27 1
  53   26  174 1
  54   27   28 1
  55   27  175 1
  56   28   29 1
  57   28  176 1
  58   28  177 1
  59   29   30 ar
  60   29   35 ar
  61   30   31 ar
  62   30  178 1
  63   31   32 ar
  64   31  179 1
  65   32   33 1
  66   32   34 ar
  67   33  180 1
  68   34   35 ar
  69   34  181 1
  70   35  182 1
  71   36   37 2
  72   36   45 am
  73   36   39 1
  74   38   39 1
  75   38   42 1
  76   39   40 1
  77   39  183 1
  78   40   41 1
  79   40  184 1
  80   40  185 1
  81   41   42 1
  82   41  186 1
  83   41  187 1
  84   42  188 1
  85   42  189 1
  86   43   44 2
  87   43   46 1
  88   43   49 am
  89   45   46 1
  90   45  190 1
  91   46  191 1
  92   46  192 1
  93   47   48 2
  94   47   50 1
  95   47   55 am
  96   49   50 1
  97   49  193 1
  98   50   51 1
  99   50  194 1
 100   51   52 1
 101   51  195 1
 102   51  196 1
 103   52  197 1
 104   53   54 2
 105   53   56 1
 106   53   59 am
 107   55   56 1
 108   55  198 1
 109   56  199 1
 110   56  200 1
 111   57   58 2
 112   57   60 1
 113   57   63 am
 114   59   60 1
 115   59  201 1
 116   60  202 1
 117   60  203 1
 118   61   62 2
 119   61   64 1
 120   61   67 am
 121   63   64 1
 122   63  204 1
 123   64  205 1
 124   64  206 1
 125   65   66 2
 126   65   68 1
 127   65   71 am
 128   67   68 1
 129   67  207 1
 130   68  208 1
 131   68  209 1
 132   69   70 2
 133   69   72 1
 134   69   75 am
 135   71   72 1
 136   71  210 1
 137   72  211 1
 138   72  212 1
 139   73   74 2
 140   73   76 1
 141   73   84 am
 142   75   76 1
 143   75  213 1
 144   76   77 1
 145   76  214 1
 146   77   78 1
 147   77  215 1
 148   77  216 1
 149   78   79 1
 150   78  217 1
 151   78  218 1
 152   79   80 2
 153   79   81 am
 154   81  219 1
 155   81  220 1
 156   82   83 2
 157   82   85 1
 158   82   93 am
 159   84   85 1
 160   84  221 1
 161   85   86 1
 162   85  222 1
 163   86   87 1
 164   86  223 1
 165   86  224 1
 166   87   88 1
 167   87  225 1
 168   87  226 1
 169   88   89 2
 170   88   90 1
 171   90  227 1
 172   91   92 2
 173   91   94 1
 174   91  101 am
 175   93   94 1
 176   93  228 1
 177   94   95 1
 178   94  229 1
 179   95   96 1
 180   95   98 1
 181   95  230 1
 182   96   97 1
 183   96  231 1
 184   96  232 1
 185   97  233 1
 186   97  234 1
 187   97  235 1
 188   98  236 1
 189   98  237 1
 190   98  238 1
 191   99  100 2
 192   99  102 1
 193   99  109 am
 194  101  102 1
 195  101  239 1
 196  102  103 1
 197  102  240 1
 198  103  104 1
 199  103  241 1
 200  103  242 1
 201  104  105 2
 202  104  106 am
 203  106  243 1
 204  106  244 1
 205  107  108 2
 206  107  110 1
 207  107  117 am
 208  109  110 1
 209  109  245 1
 210  110  111 1
 211  110  246 1
 212  111  112 1
 213  111  247 1
 214  111  248 1
 215  112  113 2
 216  112  114 am
 217  114  249 1
 218  114  250 1
 219  115  116 2
 220  115  118 1
 221  115  127 am
 222  117  118 1
 223  117  251 1
 224  118  119 1
 225  118  252 1
 226  119  120 1
 227  119  253 1
 228  119  254 1
 229  120  121 2
 230  120  124 1
 231  121  122 1
 232  121  255 1
 233  122  123 1
 234  122  256 1
 235  123  124 2
 236  123  257 1
 237  125  126 2
 238  125  128 1
 239  125  135 am
 240  127  128 1
 241  127  258 1
 242  128  129 1
 243  128  259 1
 244  129  130 1
 245  129  260 1
 246  129  261 1
 247  130  131 1
 248  130  132 1
 249  130  262 1
 250  131  263 1
 251  131  264 1
 252  131  265 1
 253  132  266 1
 254  132  267 1
 255  132  268 1
 256  133  134 2
 257  133  136 1
 258  133  142 am
 259  135  136 1
 260  135  269 1
 261  136  137 1
 262  136  270 1
 263  137  138 1
 264  137  139 1
 265  137  271 1
 266  138  272 1
 267  138  273 1
 268  138  274 1
 269  139  275 1
 270  140  141 2
 271  140  143 1
 272  140  150 1
 273  142  143 1
 274  142  276 1
 275  143  144 1
 276  143  277 1
 277  144  145 1
 278  144  278 1
 279  144  279 1
 280  145  146 2
 281  145  149 1
 282  146  147 1
 283  146  280 1
 284  147  148 1
 285  147  281 1
 286  148  149 2
 287  148  282 1
 288  150  283 1

#	End of record

