#	Name: ASD01813026
#	Creating user name:	WinNT
#	Creation time:	15. 06. 2019 19:29

#	Modifying user name:	WinNT
#	Modification time:	15. 06. 2019 19:29

#	Program:	/corina/corina34_cracker 3.40 0067  02.08.2006

@<TRIPOS>MOLECULE
ASD01813026
  43   45    0    0    0
SMALL
NO_CHARGES


@<TRIPOS>ATOM
   1 N1            -0.0158     1.3147     0.0093 N.ar    
   2 C2             0.0021    -0.0041     0.0020 C.ar    
   3 C3             1.1989    -0.7033    -0.0127 C.ar    
   4 C4             2.3829    -0.0013    -0.0202 C.ar    
   5 C5             2.3448     1.3978    -0.0128 C.ar    
   6 C6             1.0955     2.0332     0.0025 C.ar    
   7 C7             3.8373    -0.3889    -0.0363 C.3     
   8 N8             4.5955     0.8684    -0.0373 N.am    
   9 C9             3.7280     1.8961    -0.0237 C.2     
  10 C10            6.0558     0.9844    -0.0504 C.3     
  11 C11            6.5432     1.0311    -1.4757 C.ar    
  12 O12            1.0255     3.3856     0.0100 O.3     
  13 O13            4.0429     3.0706    -0.0212 O.2     
  14 C14            6.4772     2.2145    -2.1912 C.ar    
  15 C15            6.9255     2.2572    -3.5003 C.ar    
  16 C16            7.4391     1.1166    -4.0923 C.ar    
  17 C17            7.5042    -0.0662    -3.3746 C.ar    
  18 C18            7.0613    -0.1063    -2.0662 C.ar    
  19 C19           -0.2795     3.9677     0.0251 C.3     
  20 C20           -0.2431     5.3200    -0.6897 C.3     
  21 C21           -0.7317     4.1681     1.4729 C.3     
  22 O22           -1.5481     5.9020    -0.6745 O.3     
  23 F23            7.8765     1.1567    -5.3699 F       
  24 C24            0.2092     5.1195    -2.1375 C.3     
  25 F25            5.9752     3.3272    -1.6122 F       
  26 H26           -0.9309    -0.5480     0.0080 H       
  27 H27            1.2023    -1.7833    -0.0178 H       
  28 H28            4.0797    -0.9721     0.8522 H       
  29 H29            4.0624    -0.9631    -0.9351 H       
  30 H30            6.3524     1.8979     0.4651 H       
  31 H31            6.4932     0.1235     0.4552 H       
  32 H32            6.8741     3.1799    -4.0593 H       
  33 H33            7.9050    -0.9564    -3.8364 H       
  34 H34            7.1162    -1.0280    -1.5060 H       
  35 H35           -0.9786     3.3055    -0.4855 H       
  36 H36            0.4561     5.9822    -0.1790 H       
  37 H37           -0.7577     3.2048     1.9822 H       
  38 H38           -0.0326     4.8304     1.9836 H       
  39 H39           -1.7271     4.6121     1.4845 H       
  40 H40           -2.2230     5.3658    -1.1127 H       
  41 H41           -0.4899     4.4573    -2.6482 H       
  42 H42            0.2351     6.0829    -2.6467 H       
  43 H43            1.2046     4.6755    -2.1490 H       
@<TRIPOS>BOND
   1    1    2 ar
   2    1    6 ar
   3    2    3 ar
   4    2   26 1
   5    3    4 ar
   6    3   27 1
   7    4    7 1
   8    4    5 ar
   9    5    6 ar
  10    5    9 1
  11    6   12 1
  12    7    8 1
  13    7   28 1
  14    7   29 1
  15    8    9 am
  16    8   10 1
  17    9   13 2
  18   10   11 1
  19   10   30 1
  20   10   31 1
  21   11   14 ar
  22   11   18 ar
  23   12   19 1
  24   14   15 ar
  25   14   25 1
  26   15   16 ar
  27   15   32 1
  28   16   17 ar
  29   16   23 1
  30   17   18 ar
  31   17   33 1
  32   18   34 1
  33   19   21 1
  34   19   20 1
  35   19   35 1
  36   20   22 1
  37   20   24 1
  38   20   36 1
  39   21   37 1
  40   21   38 1
  41   21   39 1
  42   22   40 1
  43   24   41 1
  44   24   42 1
  45   24   43 1

#	End of record

