#	Name: ASD01913886
#	Creating user name:	WinNT
#	Creation time:	15. 06. 2019 20:02

#	Modifying user name:	WinNT
#	Modification time:	15. 06. 2019 20:02

#	Program:	/corina/corina34_cracker 3.40 0067  02.08.2006

@<TRIPOS>MOLECULE
ASD01913886
  40   43    0    0    0
SMALL
NO_CHARGES


@<TRIPOS>ATOM
   1 C1            -0.0173     1.4278     0.0109 C.ar    
   2 C2             0.0021    -0.0041     0.0027 C.1     
   3 C3             0.0180    -1.1779    -0.0040 C.1     
   4 C4             0.0374    -2.6098    -0.0122 C.ar    
   5 C5            -1.1618    -3.3381    -0.0106 C.ar    
   6 C6             0.1586    -5.3356    -0.0280 C.ar    
   7 N7             1.2718    -4.6188    -0.0351 N.ar    
   8 C8             1.2500    -3.3019    -0.0276 C.ar    
   9 C9            -1.0909    -4.7183    -0.0186 C.ar    
  10 C10            1.1817     2.1457     0.0092 C.ar    
  11 C11            1.1564     3.5242     0.0167 C.ar    
  12 C12           -1.2354     2.1129     0.0147 C.ar    
  13 C13           -0.0549     4.1980     0.0257 C.ar    
  14 C14           -1.2475     3.4916     0.0221 C.ar    
  15 N15            0.2374    -6.7273    -0.0370 N.am    
  16 C16            1.3671    -7.4408    -0.1469 C.2     
  17 N17            1.1750    -8.7691    -0.1288 N.am    
  18 C18           -0.2570    -9.0363     0.0100 C.3     
  19 C19           -0.9063    -7.6477     0.0792 C.3     
  20 C20            2.2261    -9.7844    -0.2319 C.3     
  21 O21            2.4657    -6.9311    -0.2532 O.2     
  22 F22           -2.2198    -5.4605    -0.0170 F       
  23 C23           -0.9352   -10.2035    -0.6943 C.3     
  24 C24           -0.7874   -10.2043     0.8301 C.3     
  25 F25           -0.0732     5.5488     0.0334 F       
  26 H26           -2.1162    -2.8328    -0.0029 H       
  27 H27            2.1795    -2.7518    -0.0338 H       
  28 H28            2.1261     1.6219     0.0025 H       
  29 H29            2.0823     4.0802     0.0158 H       
  30 H30           -2.1653     1.5636     0.0115 H       
  31 H31           -2.1881     4.0222     0.0288 H       
  32 H32           -1.4201    -7.5112     1.0308 H       
  33 H33           -1.5945    -7.5038    -0.7538 H       
  34 H34            3.1957    -9.2954    -0.3258 H       
  35 H35            2.2185   -10.4074     0.6625 H       
  36 H36            2.0461   -10.4059    -1.1091 H       
  37 H37           -1.9312   -10.0348    -1.1036 H       
  38 H38           -0.3023   -10.8856    -1.2620 H       
  39 H39           -0.0573   -10.8870     1.2649 H       
  40 H40           -1.6862   -10.0362     1.4233 H       
@<TRIPOS>BOND
   1    1    2 1
   2    1   10 ar
   3    1   12 ar
   4    2    3 3
   5    3    4 1
   6    4    5 ar
   7    4    8 ar
   8    5    9 ar
   9    5   26 1
  10    6    7 ar
  11    6   15 1
  12    6    9 ar
  13    7    8 ar
  14    8   27 1
  15    9   22 1
  16   10   11 ar
  17   10   28 1
  18   11   13 ar
  19   11   29 1
  20   12   14 ar
  21   12   30 1
  22   13   14 ar
  23   13   25 1
  24   14   31 1
  25   15   16 am
  26   15   19 1
  27   16   17 am
  28   16   21 2
  29   17   18 1
  30   17   20 1
  31   18   19 1
  32   18   23 1
  33   18   24 1
  34   19   32 1
  35   19   33 1
  36   20   34 1
  37   20   35 1
  38   20   36 1
  39   23   24 1
  40   23   37 1
  41   23   38 1
  42   24   39 1
  43   24   40 1

#	End of record

