#	Name: ASD01816101
#	Creating user name:	WinNT
#	Creation time:	15. 06. 2019 19:34

#	Modifying user name:	WinNT
#	Modification time:	15. 06. 2019 19:34

#	Program:	/corina/corina34_cracker 3.40 0067  02.08.2006

@<TRIPOS>MOLECULE
ASD01816101
  57   63    0    0    0
SMALL
NO_CHARGES


@<TRIPOS>ATOM
   1 C1            -0.0167     1.3813     0.0096 C.ar    
   2 C2             0.0021    -0.0041     0.0020 C.ar    
   3 C3             1.1984    -0.6909    -0.0127 C.ar    
   4 C4             2.4015     0.0059    -0.0200 C.ar    
   5 C5             2.3790     1.4106    -0.0127 C.ar    
   6 C6             1.1663     2.0916     0.0022 C.ar    
   7 N7             3.6053    -0.6772    -0.0338 N.pl3   
   8 C8             4.7970    -0.0586    -0.0409 C.2     
   9 C9             4.9000     1.3103    -0.0349 C.2     
  10 C10            3.6670     2.1301    -0.0207 C.2     
  11 C11            5.9971     2.2729    -0.0391 C.2     
  12 N12            5.4246     3.4960    -0.0282 N.am    
  13 N13            4.0323     3.3799    -0.0174 N.2     
  14 O14            7.1915     2.0229    -0.0495 O.2     
  15 C15            3.5779    -2.1419    -0.0404 C.3     
  16 C16            3.5560    -2.6375    -1.4634 C.ar    
  17 C17            4.7389    -2.8892    -2.1328 C.ar    
  18 N18            4.7331    -3.3224    -3.3774 N.ar    
  19 C19            3.6004    -3.5338    -4.0348 C.ar    
  20 C20            2.3711    -3.3007    -3.4209 C.ar    
  21 C21            2.3477    -2.8510    -2.1124 C.ar    
  22 C22            6.1265     4.7081    -0.0278 C.ar    
  23 C23            5.8865     5.6523     0.9648 C.ar    
  24 C24            7.0677     4.9677    -1.0150 C.ar    
  25 C25            7.7583     6.1639    -1.0120 C.ar    
  26 C26            7.5140     7.1037    -0.0273 C.ar    
  27 C27            6.5819     6.8478     0.9614 C.ar    
  28 F28            4.9754     5.4022     1.9305 F       
  29 C29            3.6425    -4.0217    -5.4347 C.ar    
  30 C30            2.4570    -4.1464    -6.1667 C.ar    
  31 C31            2.4781    -4.5939    -7.4561 C.ar    
  32 C32            3.6857    -4.9325    -8.0602 C.ar    
  33 C33            4.8854    -4.8107    -7.3335 C.ar    
  34 C34            4.8593    -4.3486    -6.0185 C.ar    
  35 N35            4.0163    -5.4003    -9.3118 N.pl3   
  36 C36            5.3703    -5.5768    -9.4010 C.2     
  37 C37            5.9538    -5.2389    -8.2405 C.2     
  38 H38           -0.9602     1.9068     0.0170 H       
  39 H39           -0.9289    -0.5515     0.0080 H       
  40 H40            1.2004    -1.7709    -0.0181 H       
  41 H41            1.1506     3.1715     0.0077 H       
  42 H42            5.6983    -0.6536    -0.0513 H       
  43 H43            4.4654    -2.5242     0.4639 H       
  44 H44            2.6859    -2.4910     0.4797 H       
  45 H45            5.6806    -2.7284    -1.6291 H       
  46 H46            1.4497    -3.4725    -3.9574 H       
  47 H47            1.4104    -2.6619    -1.6103 H       
  48 H48            7.2599     4.2346    -1.7845 H       
  49 H49            8.4906     6.3655    -1.7798 H       
  50 H50            8.0560     8.0378    -0.0278 H       
  51 H51            6.3934     7.5839     1.7289 H       
  52 H52            1.5151    -3.8862    -5.7068 H       
  53 H53            1.5551    -4.6860    -8.0091 H       
  54 H54            5.7765    -4.2528    -5.4564 H       
  55 H55            3.3834    -5.5784   -10.0249 H       
  56 H56            5.8923    -5.9356   -10.2757 H       
  57 H57            7.0099    -5.2755    -8.0175 H       
@<TRIPOS>BOND
   1    1    2 ar
   2    1    6 ar
   3    1   38 1
   4    2    3 ar
   5    2   39 1
   6    3    4 ar
   7    3   40 1
   8    4    5 ar
   9    4    7 1
  10    5    6 ar
  11    5   10 1
  12    6   41 1
  13    7    8 1
  14    7   15 1
  15    8    9 2
  16    8   42 1
  17    9   10 1
  18    9   11 1
  19   10   13 2
  20   11   12 am
  21   11   14 2
  22   12   13 1
  23   12   22 1
  24   15   16 1
  25   15   43 1
  26   15   44 1
  27   16   17 ar
  28   16   21 ar
  29   17   18 ar
  30   17   45 1
  31   18   19 ar
  32   19   20 ar
  33   19   29 1
  34   20   21 ar
  35   20   46 1
  36   21   47 1
  37   22   23 ar
  38   22   24 ar
  39   23   28 1
  40   23   27 ar
  41   24   25 ar
  42   24   48 1
  43   25   26 ar
  44   25   49 1
  45   26   27 ar
  46   26   50 1
  47   27   51 1
  48   29   30 ar
  49   29   34 ar
  50   30   31 ar
  51   30   52 1
  52   31   32 ar
  53   31   53 1
  54   32   33 ar
  55   32   35 1
  56   33   34 ar
  57   33   37 1
  58   34   54 1
  59   35   36 1
  60   35   55 1
  61   36   37 2
  62   36   56 1
  63   37   57 1

#	End of record

