#	Name: ASD01908252
#	Creating user name:	WinNT
#	Creation time:	15. 06. 2019 19:54

#	Modifying user name:	WinNT
#	Modification time:	15. 06. 2019 19:54

#	Program:	/corina/corina34_cracker 3.40 0067  02.08.2006

@<TRIPOS>MOLECULE
ASD01908252
  26   27    0    0    0
SMALL
NO_CHARGES


@<TRIPOS>ATOM
   1 C1             0.0198     1.4250    -0.1943 C.ar    
   2 C2             0.0671     0.0515    -0.4237 C.ar    
   3 C3             1.2963    -0.5885    -0.4265 C.ar    
   4 C4             2.4360     0.1675    -0.1997 C.ar    
   5 C5             2.3145     1.5299     0.0214 C.ar    
   6 N6             1.1352     2.1122     0.0187 N.ar    
   7 C7            -1.2856     2.1251    -0.1942 C.2     
   8 O8            -2.3095     1.5016    -0.3936 O.2     
   9 N9            -1.3378     3.4535     0.0271 N.am    
  10 C10           -2.5572     4.1309    -0.0690 C.ar    
  11 C11           -3.7305     3.5113     0.3392 C.ar    
  12 C12           -4.9371     4.1861     0.2428 C.ar    
  13 C13           -4.9699     5.4791    -0.2612 C.ar    
  14 C14           -3.8012     6.0941    -0.6675 C.ar    
  15 C15           -2.5955     5.4268    -0.5677 C.ar    
  16 O16           -6.0875     3.5822     0.6411 O.3     
  17 H17           -0.8413    -0.5065    -0.5966 H       
  18 H18            1.3648    -1.6521    -0.6011 H       
  19 H19            3.4091    -0.3010    -0.1951 H       
  20 H20            3.2003     2.1218     0.1988 H       
  21 H21           -0.5294     3.9397     0.2531 H       
  22 H22           -3.7031     2.5052     0.7308 H       
  23 H23           -5.9103     6.0049    -0.3363 H       
  24 H24           -3.8297     7.1000    -1.0596 H       
  25 H25           -1.6829     5.9115    -0.8817 H       
  26 H26           -6.3064     3.7279     1.5717 H       
@<TRIPOS>BOND
   1    1    2 ar
   2    1    6 ar
   3    1    7 1
   4    2    3 ar
   5    2   17 1
   6    3    4 ar
   7    3   18 1
   8    4    5 ar
   9    4   19 1
  10    5    6 ar
  11    5   20 1
  12    7    8 2
  13    7    9 am
  14    9   10 1
  15    9   21 1
  16   10   11 ar
  17   10   15 ar
  18   11   12 ar
  19   11   22 1
  20   12   13 ar
  21   12   16 1
  22   13   14 ar
  23   13   23 1
  24   14   15 ar
  25   14   24 1
  26   15   25 1
  27   16   26 1

#	End of record

