#	Name: ASD06170162
#	Creating user name:	WinNT
#	Creation time:	15. 06. 2019 21:05

#	Modifying user name:	WinNT
#	Modification time:	15. 06. 2019 21:05

#	Program:	/corina/corina34_cracker 3.40 0067  02.08.2006

@<TRIPOS>MOLECULE
ASD06170162
  76   80    0    0    0
SMALL
NO_CHARGES


@<TRIPOS>ATOM
   1 N1            -0.1272     1.6936     1.4134 N.pl3   
   2 N2             0.0265     0.7068     2.3917 N.am    
   3 C3             1.3296     0.3625     2.4535 C.2     
   4 C4             2.0274     1.1854     1.4528 C.2     
   5 C5             1.0655     1.9767     0.8559 C.2     
   6 C6             3.4634     1.1690     1.1493 C.2     
   7 O7             3.9126     1.9068     0.2921 O.2     
   8 N8             4.2845     0.3369     1.8199 N.am    
   9 C9            -0.9986     0.1673     3.1754 C.ar    
  10 C10           -2.2070    -0.1895     2.5911 C.ar    
  11 C11           -3.2171    -0.7224     3.3677 C.ar    
  12 C12           -3.0265    -0.9005     4.7258 C.ar    
  13 C13           -1.8247    -0.5459     5.3107 C.ar    
  14 C14           -0.8083    -0.0182     4.5386 C.ar    
  15 O15            1.8297    -0.4653     3.1920 O.2     
  16 C16            1.3096     2.9865    -0.2357 C.3     
  17 C17           -1.3983     2.3219     1.0449 C.3     
  18 C18           -1.6893     3.4820     1.9991 C.3     
  19 C19           -0.5639     4.5143     1.9050 C.3     
  20 C20           -3.0167     4.1382     1.6142 C.3     
  21 O21           -1.7723     2.9885     3.3375 O.3     
  22 C22            5.6205     0.2010     1.4228 C.ar    
  23 C23            6.2510     1.2339     0.7412 C.ar    
  24 C24            7.5697     1.0989     0.3496 C.ar    
  25 C25            8.2634    -0.0702     0.6382 C.ar    
  26 C26            7.6329    -1.1008     1.3182 C.ar    
  27 C27            6.3168    -0.9639     1.7153 C.ar    
  28 O28            9.5610    -0.2036     0.2531 O.3     
  29 C29           11.6316    -2.9101     1.5413 C.ar    
  30 C30           11.0546    -1.6529     1.4258 C.ar    
  31 C31           10.1473    -1.4189     0.3991 C.ar    
  32 C32            9.8539    -2.4637    -0.4772 C.ar    
  33 C33           10.4678    -3.6847    -0.2985 C.ar    
  34 N34           11.3251    -3.8750     0.6874 N.ar    
  35 C35           13.2080    -4.3318     2.6055 C.2     
  36 O36           13.0917    -5.1283     1.6944 O.2     
  37 N37           12.5476    -3.1577     2.5627 N.am    
  38 N38           13.9974    -4.6229     3.6584 N.am    
  39 C39           14.7712    -5.8607     3.8329 C.3     
  40 C40           15.4977    -5.7595     5.1906 C.3     
  41 C41           14.6466    -4.7172     5.9632 C.3     
  42 C42           14.2328    -3.7501     4.8230 C.3     
  43 F43            8.1838     2.1028    -0.3139 F       
  44 H44            3.9501    -0.1679     2.5777 H       
  45 H45           -2.3568    -0.0500     1.5307 H       
  46 H46           -4.1570    -1.0000     2.9140 H       
  47 H47           -3.8181    -1.3171     5.3309 H       
  48 H48           -1.6792    -0.6856     6.3717 H       
  49 H49            0.1318     0.2541     4.9952 H       
  50 H50            1.5269     3.9575     0.2094 H       
  51 H51            2.1567     2.6675    -0.8430 H       
  52 H52            0.4218     3.0650    -0.8632 H       
  53 H53           -1.3350     2.6984     0.0239 H       
  54 H54           -2.2000     1.5865     1.1119 H       
  55 H55           -0.5006     4.8907     0.8840 H       
  56 H56           -0.7712     5.3407     2.5848 H       
  57 H57            0.3818     4.0468     2.1792 H       
  58 H58           -3.8185     3.4028     1.6812 H       
  59 H59           -3.2240     4.9647     2.2940 H       
  60 H60           -2.9534     4.5147     0.5932 H       
  61 H61           -2.4662     2.3283     3.4710 H       
  62 H62            5.7111     2.1420     0.5170 H       
  63 H63            8.1724    -2.0093     1.5419 H       
  64 H64            5.8280    -1.7652     2.2495 H       
  65 H65           11.3063    -0.8683     2.1240 H       
  66 H66            9.1535    -2.3176    -1.2862 H       
  67 H67           10.2443    -4.4971    -0.9741 H       
  68 H68           12.7096    -2.4850     3.2425 H       
  69 H69           14.1006    -6.7200     3.8344 H       
  70 H70           15.5005    -5.9584     3.0286 H       
  71 H71           15.4902    -6.7206     5.7046 H       
  72 H72           16.5181    -5.4007     5.0562 H       
  73 H73           13.7742    -5.1856     6.4187 H       
  74 H74           15.2468    -4.2009     6.7125 H       
  75 H75           15.0356    -3.0437     4.6115 H       
  76 H76           13.3193    -3.2187     5.0897 H       
@<TRIPOS>BOND
   1    1    2 1
   2    1    5 1
   3    1   17 1
   4    2    3 am
   5    2    9 1
   6    3    4 1
   7    3   15 2
   8    4    5 2
   9    4    6 1
  10    5   16 1
  11    6    7 2
  12    6    8 am
  13    8   22 1
  14    8   44 1
  15    9   10 ar
  16    9   14 ar
  17   10   11 ar
  18   10   45 1
  19   11   12 ar
  20   11   46 1
  21   12   13 ar
  22   12   47 1
  23   13   14 ar
  24   13   48 1
  25   14   49 1
  26   16   50 1
  27   16   51 1
  28   16   52 1
  29   17   18 1
  30   17   53 1
  31   17   54 1
  32   18   19 1
  33   18   20 1
  34   18   21 1
  35   19   55 1
  36   19   56 1
  37   19   57 1
  38   20   58 1
  39   20   59 1
  40   20   60 1
  41   21   61 1
  42   22   23 ar
  43   22   27 ar
  44   23   24 ar
  45   23   62 1
  46   24   25 ar
  47   24   43 1
  48   25   26 ar
  49   25   28 1
  50   26   27 ar
  51   26   63 1
  52   27   64 1
  53   28   31 1
  54   29   30 ar
  55   29   34 ar
  56   29   37 1
  57   30   31 ar
  58   30   65 1
  59   31   32 ar
  60   32   33 ar
  61   32   66 1
  62   33   34 ar
  63   33   67 1
  64   35   36 2
  65   35   37 am
  66   35   38 am
  67   37   68 1
  68   38   39 1
  69   38   42 1
  70   39   40 1
  71   39   69 1
  72   39   70 1
  73   40   41 1
  74   40   71 1
  75   40   72 1
  76   41   42 1
  77   41   73 1
  78   41   74 1
  79   42   75 1
  80   42   76 1

#	End of record

