#	Name: ASD01885451
#	Creating user name:	WinNT
#	Creation time:	15. 06. 2019 19:49

#	Modifying user name:	WinNT
#	Modification time:	15. 06. 2019 19:49

#	Program:	/corina/corina34_cracker 3.40 0067  02.08.2006

@<TRIPOS>MOLECULE
ASD01885451
  41   43    0    0    0
SMALL
NO_CHARGES


@<TRIPOS>ATOM
   1 C1            -0.1338     2.1247     0.0892 C.ar    
   2 C2            -0.3323     0.7433     0.0701 C.ar    
   3 N3            -1.5544     0.1562     0.1030 N.2     
   4 C4            -2.5980     0.5332    -0.5424 C.2     
   5 C5            -2.5862     1.7539    -1.4248 C.3     
   6 C6            -2.3073     2.9565    -0.5590 C.2     
   7 N7            -1.1687     3.0510     0.1264 N.am    
   8 C8             1.1634     2.6305     0.0646 C.ar    
   9 C9             2.2584     1.7732     0.0162 C.ar    
  10 C10            2.0570     0.3905    -0.0085 C.ar    
  11 C11            0.7822    -0.1149     0.0179 C.ar    
  12 C12           -3.8394    -0.2485    -0.4172 C.ar    
  13 O13           -3.1273     3.8473    -0.4871 O.2     
  14 C14           -3.8361    -1.4641     0.2753 C.ar    
  15 C15           -4.9996    -2.1974     0.3935 C.ar    
  16 C16           -6.1737    -1.7380    -0.1696 C.ar    
  17 C17           -6.1926    -0.5255    -0.8648 C.ar    
  18 C18           -5.0243     0.2239    -0.9841 C.ar    
  19 C19           -7.4115    -0.0521    -1.4486 C.1     
  20 N20           -8.3784     0.3235    -1.9117 N.1     
  21 C21            3.6307     2.3235    -0.0095 C.2     
  22 N22            3.8159     3.6119     0.0132 N.2     
  23 N23            4.7187     1.4684    -0.0576 N.am    
  24 O24            6.1346     3.1665    -0.2384 O.2     
  25 C25            5.9609     1.9667    -0.2159 C.2     
  26 C26            7.1342     1.0326    -0.3648 C.3     
  27 H27           -1.8059     1.6549    -2.1794 H       
  28 H28           -3.5558     1.8667    -1.9098 H       
  29 H29           -1.0535     3.8259     0.6984 H       
  30 H30            1.3211     3.6988     0.0829 H       
  31 H31            2.9036    -0.2789    -0.0485 H       
  32 H32            0.6318    -1.1842    -0.0011 H       
  33 H33           -2.9213    -1.8297     0.7179 H       
  34 H34           -4.9915    -3.1354     0.9288 H       
  35 H35           -7.0800    -2.3173    -0.0728 H       
  36 H36           -5.0334     1.1615    -1.5199 H       
  37 H37            4.7116     3.9715     0.1093 H       
  38 H38            4.5869     0.5107     0.0226 H       
  39 H39            6.7852     0.0010    -0.3200 H       
  40 H40            7.6206     1.2103    -1.3239 H       
  41 H41            7.8453     1.2110     0.4418 H       
@<TRIPOS>BOND
   1    1    2 ar
   2    1    8 ar
   3    1    7 1
   4    2    3 1
   5    2   11 ar
   6    3    4 2
   7    4    5 1
   8    4   12 1
   9    5    6 1
  10    5   27 1
  11    5   28 1
  12    6    7 am
  13    6   13 2
  14    7   29 1
  15    8    9 ar
  16    8   30 1
  17    9   10 ar
  18    9   21 1
  19   10   11 ar
  20   10   31 1
  21   11   32 1
  22   12   14 ar
  23   12   18 ar
  24   14   15 ar
  25   14   33 1
  26   15   16 ar
  27   15   34 1
  28   16   17 ar
  29   16   35 1
  30   17   18 ar
  31   17   19 1
  32   18   36 1
  33   19   20 3
  34   21   22 2
  35   21   23 1
  36   22   37 1
  37   23   25 am
  38   23   38 1
  39   24   25 2
  40   25   26 1
  41   26   39 1
  42   26   40 1
  43   26   41 1

#	End of record

