#	Name: ASD03090509
#	Creating user name:	WinNT
#	Creation time:	15. 06. 2019 20:28

#	Modifying user name:	WinNT
#	Modification time:	15. 06. 2019 20:28

#	Program:	/corina/corina34_cracker 3.40 0067  02.08.2006

@<TRIPOS>MOLECULE
ASD03090509
  41   44    0    0    0
SMALL
NO_CHARGES


@<TRIPOS>ATOM
   1 C1            -0.0169     1.3948     0.0097 C.ar    
   2 C2             0.0021    -0.0041     0.0020 C.ar    
   3 C3             1.2335    -0.6377    -0.0131 C.ar    
   4 C4             2.3813     0.1593    -0.0198 C.ar    
   5 N5             2.2674     1.4845    -0.0116 N.ar    
   6 N6             1.1261     2.0717     0.0024 N.ar    
   7 C7            -1.3077     2.1190     0.0197 C.2     
   8 O8            -2.3526     1.4984     0.0213 O.2     
   9 N9            -1.3242     3.4666     0.0272 N.am    
  10 C10            3.7228    -0.4708    -0.0355 C.ar    
  11 C11            4.8690     0.3233    -0.0422 C.ar    
  12 C12            6.1152    -0.2690    -0.0569 C.ar    
  13 C13            6.2288    -1.6477    -0.0654 C.ar    
  14 C14            5.0952    -2.4407    -0.0593 C.ar    
  15 C15            3.8437    -1.8599    -0.0379 C.ar    
  16 C16           -2.6019     4.1834     0.0371 C.3     
  17 N17           -1.8205     8.6312     2.2577 N.pl3   
  18 C18           -1.6090     9.8704     1.7174 C.2     
  19 C19           -1.6290     9.7948     0.3773 C.2     
  20 C20           -1.8731     8.3925     0.0312 C.ar    
  21 C21           -1.9994     7.6979    -1.1736 C.ar    
  22 C22           -2.2332     6.3519    -1.1592 C.ar    
  23 C23           -2.3447     5.6683     0.0439 C.ar    
  24 C24           -2.2232     6.3337     1.2439 C.ar    
  25 C25           -1.9858     7.7045     1.2530 C.ar    
  26 H26           -0.9160    -0.5728     0.0081 H       
  27 H27            1.3045    -1.7153    -0.0193 H       
  28 H28           -0.4902     3.9619     0.0259 H       
  29 H29            4.7815     1.3997    -0.0363 H       
  30 H30            7.0037     0.3450    -0.0621 H       
  31 H31            7.2063    -2.1068    -0.0772 H       
  32 H32            5.1901    -3.5165    -0.0667 H       
  33 H33            2.9595    -2.4799    -0.0279 H       
  34 H34           -3.1744     3.9179    -0.8517 H       
  35 H35           -3.1659     3.9082     0.9283 H       
  36 H36           -1.8460     8.4343     3.2072 H       
  37 H37           -1.4500    10.7754     2.2850 H       
  38 H38           -1.4911    10.6126    -0.3144 H       
  39 H39           -1.9137     8.2231    -2.1134 H       
  40 H40           -2.3311     5.8153    -2.0913 H       
  41 H41           -2.3119     5.7930     2.1746 H       
@<TRIPOS>BOND
   1    1    2 ar
   2    1    6 ar
   3    1    7 1
   4    2    3 ar
   5    2   26 1
   6    3    4 ar
   7    3   27 1
   8    4    5 ar
   9    4   10 1
  10    5    6 ar
  11    7    8 2
  12    7    9 am
  13    9   16 1
  14    9   28 1
  15   10   11 ar
  16   10   15 ar
  17   11   12 ar
  18   11   29 1
  19   12   13 ar
  20   12   30 1
  21   13   14 ar
  22   13   31 1
  23   14   15 ar
  24   14   32 1
  25   15   33 1
  26   16   23 1
  27   16   34 1
  28   16   35 1
  29   17   18 1
  30   17   25 1
  31   17   36 1
  32   18   19 2
  33   18   37 1
  34   19   20 1
  35   19   38 1
  36   20   21 ar
  37   20   25 ar
  38   21   22 ar
  39   21   39 1
  40   22   23 ar
  41   22   40 1
  42   23   24 ar
  43   24   25 ar
  44   24   41 1

#	End of record

