#	Name: ASD01410217
#	Creating user name:	WinNT
#	Creation time:	15. 06. 2019 19:17

#	Modifying user name:	WinNT
#	Modification time:	15. 06. 2019 19:17

#	Program:	/corina/corina34_cracker 3.40 0067  02.08.2006

@<TRIPOS>MOLECULE
ASD01410217
  41   43    0    0    0
SMALL
NO_CHARGES


@<TRIPOS>ATOM
   1 C1            -0.0163     1.3475     0.0095 C.2     
   2 C2             0.0021    -0.0041     0.0020 C.2     
   3 C3            -1.3321    -0.4376     0.0133 C.2     
   4 C4            -2.1146     0.7003     0.0274 C.2     
   5 O5            -1.2891     1.7679     0.0297 O.3     
   6 C6            -4.1759     1.9388     0.0546 C.2     
   7 S7            -3.4708     3.5687     0.0561 S.3     
   8 C8            -5.0402     4.3930     0.0687 C.2     
   9 N9            -5.9628     3.4599     0.0710 N.2     
  10 C10           -5.6233     2.1888     0.0644 C.2     
  11 C11           -3.5274     0.7396     0.0415 C.2     
  12 O12           -6.4473     1.2871     0.0659 O.2     
  13 N13           -5.2500     5.7478     0.0749 N.pl3   
  14 C14           -6.6159     6.2774     0.0851 C.3     
  15 C15            1.1990     2.2387     0.0026 C.3     
  16 C16            1.5965     2.5480    -1.4421 C.3     
  17 C17           -7.6351     8.0387     1.5416 C.ar    
  18 C18           -6.6150     7.6574     0.6905 C.ar    
  19 C19           -5.5935     8.5409     0.3945 C.ar    
  20 C20           -5.5908     9.8067     0.9491 C.ar    
  21 C21           -6.6116    10.1907     1.8018 C.ar    
  22 C22           -7.6350     9.3050     2.0981 C.ar    
  23 F23           -6.6096    11.4277     2.3448 F       
  24 Cl24          -8.9164     9.7844     3.1667 Cl      
  25 C25           -7.1377     6.3486    -1.3269 C.2     
  26 O26           -6.4402     5.9934    -2.2473 O.2     
  27 O27           -8.3773     6.8066    -1.5620 O.3     
  28 H28            0.8800    -0.6329    -0.0108 H       
  29 H29           -1.6791    -1.4603     0.0108 H       
  30 H30           -4.0933    -0.1803     0.0420 H       
  31 H31           -4.4941     6.3556     0.0724 H       
  32 H32           -7.2554     5.6218     0.6762 H       
  33 H33            0.9707     3.1685     0.5237 H       
  34 H34            2.0231     1.7331     0.5059 H       
  35 H35            2.4755     3.1926    -1.4470 H       
  36 H36            1.8248     1.6182    -1.9631 H       
  37 H37            0.7724     3.0536    -1.9454 H       
  38 H38           -8.4349     7.3493     1.7686 H       
  39 H39           -4.7968     8.2414    -0.2705 H       
  40 H40           -4.7923    10.4960     0.7176 H       
  41 H41           -8.6678     6.8337    -2.4839 H       
@<TRIPOS>BOND
   1    1    2 2
   2    1   15 1
   3    1    5 1
   4    2    3 1
   5    2   28 1
   6    3    4 2
   7    3   29 1
   8    4    5 1
   9    4   11 1
  10    6    7 1
  11    6   10 1
  12    6   11 2
  13    7    8 1
  14    8    9 2
  15    8   13 1
  16    9   10 1
  17   10   12 2
  18   11   30 1
  19   13   14 1
  20   13   31 1
  21   14   25 1
  22   14   18 1
  23   14   32 1
  24   15   16 1
  25   15   33 1
  26   15   34 1
  27   16   35 1
  28   16   36 1
  29   16   37 1
  30   17   18 ar
  31   17   22 ar
  32   17   38 1
  33   18   19 ar
  34   19   20 ar
  35   19   39 1
  36   20   21 ar
  37   20   40 1
  38   21   22 ar
  39   21   23 1
  40   22   24 1
  41   25   26 2
  42   25   27 1
  43   27   41 1

#	End of record

