#	Name: ASD03330635
#	Creating user name:	WinNT
#	Creation time:	15. 06. 2019 20:37

#	Modifying user name:	WinNT
#	Modification time:	15. 06. 2019 20:37

#	Program:	/corina/corina34_cracker 3.40 0067  02.08.2006

@<TRIPOS>MOLECULE
ASD03330635
  64   66    0    0    0
SMALL
NO_CHARGES


@<TRIPOS>ATOM
   1 C1            -0.0612     2.0052     1.7855 C.2     
   2 N2            -0.1501     0.7133     2.2017 N.pl3   
   3 C3             1.2148     2.1994     1.3524 C.2     
   4 N4             1.8799     1.0310     1.4910 N.2     
   5 C5             1.0667     0.1318     1.9948 C.2     
   6 C6             1.4116    -1.2753     2.2886 C.ar    
   7 C7             1.7711     3.4581     0.8258 C.2     
   8 O8             1.0687     4.4481     0.7487 O.2     
   9 C9             3.6112     4.7639    -0.0939 C.3     
  10 N10            3.0581     3.5124     0.4296 N.am    
  11 C11            3.2997     4.8736    -1.5879 C.3     
  12 C12            1.7889     4.7641    -1.8032 C.3     
  13 C13            3.7935     6.2227    -2.1141 C.3     
  14 C14            4.0053     3.7435    -2.3402 C.3     
  15 C15            5.1042     4.7775     0.1103 C.2     
  16 N16            5.7915     5.9298    -0.0182 N.am    
  17 O17            5.6874     3.7516     0.3902 O.2     
  18 C18            7.2511     5.9300     0.1071 C.3     
  19 C19           -1.3428     0.0864     2.7780 C.3     
  20 C20           -2.5588     0.4291     1.9116 C.3     
  21 C21           -3.1672     1.7486     2.3756 C.3     
  22 N22           -2.1328     2.6644     2.8606 N.3     
  23 C23           -1.1829     3.0113     1.7931 C.3     
  24 C24           -2.7310     3.8717     3.4458 C.3     
  25 C25            2.0974    -2.0410     1.3419 C.ar    
  26 C26            2.4177    -3.3556     1.6206 C.ar    
  27 C27            2.0591    -3.9156     2.8380 C.ar    
  28 C28            1.3760    -3.1567     3.7829 C.ar    
  29 C29            1.0582    -1.8413     3.5152 C.ar    
  30 O30            2.3756    -5.2091     3.1082 O.3     
  31 F31            2.4462    -1.4966     0.1556 F       
  32 F32            1.0283    -3.7071     4.9667 F       
  33 C33            3.0770    -5.9309     2.0938 C.3     
  34 H34            3.1647     5.6070     0.4332 H       
  35 H35            3.6183     2.7229     0.4912 H       
  36 H36            1.2862     5.5691    -1.2672 H       
  37 H37            1.5670     4.8422    -2.8675 H       
  38 H38            1.4372     3.8029    -1.4283 H       
  39 H39            4.8380     6.3614    -1.8350 H       
  40 H40            3.7015     6.2449    -3.2000 H       
  41 H41            3.1927     7.0231    -1.6822 H       
  42 H42            3.6536     2.7824    -1.9653 H       
  43 H43            3.7834     3.8217    -3.4045 H       
  44 H44            5.0817     3.8215    -2.1868 H       
  45 H45            5.3196     6.7589    -0.1937 H       
  46 H46            7.5310     5.5653     1.0954 H       
  47 H47            7.6813     5.2804    -0.6552 H       
  48 H48            7.6270     6.9444    -0.0258 H       
  49 H49           -1.2086    -0.9949     2.8060 H       
  50 H50           -1.4989     0.4614     3.7895 H       
  51 H51           -2.2483     0.5193     0.8707 H       
  52 H52           -3.3018    -0.3635     1.9999 H       
  53 H53           -3.6932     2.2128     1.5413 H       
  54 H54           -3.8766     1.5522     3.1795 H       
  55 H55           -0.7782     4.0069     1.9747 H       
  56 H56           -1.6941     2.9944     0.8306 H       
  57 H57           -3.3700     3.5913     4.2831 H       
  58 H58           -1.9406     4.5346     3.7980 H       
  59 H59           -3.3261     4.3851     2.6906 H       
  60 H60            2.9477    -3.9482     0.8896 H       
  61 H61            0.5281    -1.2529     4.2494 H       
  62 H62            2.4742    -5.9604     1.1861 H       
  63 H63            4.0249    -5.4351     1.8845 H       
  64 H64            3.2670    -6.9479     2.4369 H       
@<TRIPOS>BOND
   1    1    2 1
   2    1    3 2
   3    1   23 1
   4    2   19 1
   5    2    5 1
   6    3    4 1
   7    3    7 1
   8    4    5 2
   9    5    6 1
  10    6   25 ar
  11    6   29 ar
  12    7    8 2
  13    7   10 am
  14    9   10 1
  15    9   11 1
  16    9   15 1
  17    9   34 1
  18   10   35 1
  19   11   12 1
  20   11   13 1
  21   11   14 1
  22   12   36 1
  23   12   37 1
  24   12   38 1
  25   13   39 1
  26   13   40 1
  27   13   41 1
  28   14   42 1
  29   14   43 1
  30   14   44 1
  31   15   16 am
  32   15   17 2
  33   16   18 1
  34   16   45 1
  35   18   46 1
  36   18   47 1
  37   18   48 1
  38   19   20 1
  39   19   49 1
  40   19   50 1
  41   20   21 1
  42   20   51 1
  43   20   52 1
  44   21   22 1
  45   21   53 1
  46   21   54 1
  47   22   23 1
  48   22   24 1
  49   23   55 1
  50   23   56 1
  51   24   57 1
  52   24   58 1
  53   24   59 1
  54   25   26 ar
  55   25   31 1
  56   26   27 ar
  57   26   60 1
  58   27   28 ar
  59   27   30 1
  60   28   29 ar
  61   28   32 1
  62   29   61 1
  63   30   33 1
  64   33   62 1
  65   33   63 1
  66   33   64 1

#	End of record

