#	Name: ASD01209089
#	Creating user name:	WinNT
#	Creation time:	15. 06. 2019 19:10

#	Modifying user name:	WinNT
#	Modification time:	15. 06. 2019 19:10

#	Program:	/corina/corina34_cracker 3.40 0067  02.08.2006

@<TRIPOS>MOLECULE
ASD01209089
  72   74    0    0    0
SMALL
NO_CHARGES


@<TRIPOS>ATOM
   1 C1             0.6219    -1.3900     1.3556 C.3     
   2 C2             1.9264    -1.3116    -3.7623 C.ar    
   3 S3            -0.5621    -1.0876     0.0150 S.o2    
   4 O4            -1.4726    -2.1725    -0.1003 O.2     
   5 O5            -1.0240     0.2557     0.0512 O.2     
   6 N6             2.6956    -1.3809    -4.9292 N.am    
   7 C7             4.0233    -1.1555    -4.8755 C.2     
   8 N8             4.7803    -1.3221    -5.9781 N.am    
   9 O9             4.5381    -0.8018    -3.8324 O.2     
  10 C10            2.0578    -1.6985    -6.2093 C.3     
  11 C11            1.7375    -0.4016    -6.9551 C.3     
  12 C12            1.1843    -0.7214    -8.3549 C.3     
  13 C13           -0.2379    -0.1266    -8.4133 C.3     
  14 C14           -0.2250     0.9942    -7.3443 C.3     
  15 C15            0.6321     0.3764    -6.2117 C.3     
  16 C16            1.3265    -2.4569    -3.2553 C.ar    
  17 C17            0.5679    -2.3851    -2.1034 C.ar    
  18 C18            0.4061    -1.1748    -1.4546 C.ar    
  19 C19            1.0021    -0.0326    -1.9569 C.ar    
  20 C20            1.7659    -0.0985    -3.1057 C.ar    
  21 C21            6.1655    -1.1885    -5.8991 C.ar    
  22 C22            6.9300    -1.2452    -7.0587 C.ar    
  23 P23           12.5419     0.8872    -5.4870 P.3     
  24 O24           12.9774     0.2554    -4.2214 O.2     
  25 O25           12.9243     2.4510    -5.4655 O.3     
  26 O26           13.2798     0.1712    -6.7259 O.3     
  27 C27           14.2521     2.9244    -5.2316 C.3     
  28 C28           14.2640     4.4536    -5.2786 C.3     
  29 C29           14.7005     0.0497    -6.8209 C.3     
  30 C30           15.0646    -0.6789    -8.1161 C.3     
  31 C31            8.3043    -1.1111    -6.9661 C.ar    
  32 C32            8.8684    -0.9243    -5.7117 C.ar    
  33 C33            8.0482    -0.8780    -4.6016 C.ar    
  34 N34            6.7404    -1.0035    -4.7212 N.ar    
  35 C35           10.3605    -0.7739    -5.5627 C.3     
  36 C36           10.7370     0.7053    -5.6673 C.3     
  37 H37            1.0756    -2.3724     1.2250 H       
  38 H38            1.3984    -0.6253     1.3340 H       
  39 H39            0.1031    -1.3539     2.3136 H       
  40 H40            4.3611    -1.5350    -6.8265 H       
  41 H41            2.7335    -2.3063    -6.8110 H       
  42 H42            1.1357    -2.2509    -6.0286 H       
  43 H43            2.6346     0.2118    -7.0393 H       
  44 H44            1.8125    -0.2625    -9.1184 H       
  45 H45            1.1441    -1.8005    -8.5029 H       
  46 H46           -0.4369     0.2902    -9.4006 H       
  47 H47           -0.9792    -0.8851    -8.1619 H       
  48 H48            0.2448     1.8963    -7.7360 H       
  49 H49           -1.2352     1.2047    -6.9932 H       
  50 H50            0.0313    -0.3009    -5.6047 H       
  51 H51            1.0680     1.1603    -5.5923 H       
  52 H52            1.4525    -3.4025    -3.7616 H       
  53 H53            0.1012    -3.2755    -1.7086 H       
  54 H54            0.8733     0.9114    -1.4482 H       
  55 H55            2.2314     0.7939    -3.4974 H       
  56 H56            6.4579    -1.3922    -8.0188 H       
  57 H57           14.5903     2.5883    -4.2514 H       
  58 H58           14.9183     2.5321    -6.0000 H       
  59 H59           13.5978     4.8459    -4.5102 H       
  60 H60           15.2769     4.8147    -5.1002 H       
  61 H61           13.9259     4.7897    -6.2588 H       
  62 H62           15.1507     1.0424    -6.8236 H       
  63 H63           15.0746    -0.5166    -5.9680 H       
  64 H64           14.6144    -1.6716    -8.1135 H       
  65 H65           14.6905    -0.1126    -8.9690 H       
  66 H66           16.1482    -0.7716    -8.1886 H       
  67 H67            8.9238    -1.1513    -7.8498 H       
  68 H68            8.4826    -0.7331    -3.6235 H       
  69 H69           10.6692    -1.1596    -4.5911 H       
  70 H70           10.8626    -1.3334    -6.3520 H       
  71 H71           10.2348     1.2647    -4.8780 H       
  72 H72           10.4282     1.0910    -6.6389 H       
@<TRIPOS>BOND
   1    1    3 1
   2    1   37 1
   3    1   38 1
   4    1   39 1
   5    2    6 1
   6    2   16 ar
   7    2   20 ar
   8    3    4 2
   9    3    5 2
  10    3   18 1
  11    6    7 am
  12    6   10 1
  13    7    8 am
  14    7    9 2
  15    8   21 1
  16    8   40 1
  17   10   11 1
  18   10   41 1
  19   10   42 1
  20   11   12 1
  21   11   15 1
  22   11   43 1
  23   12   13 1
  24   12   44 1
  25   12   45 1
  26   13   14 1
  27   13   46 1
  28   13   47 1
  29   14   15 1
  30   14   48 1
  31   14   49 1
  32   15   50 1
  33   15   51 1
  34   16   17 ar
  35   16   52 1
  36   17   18 ar
  37   17   53 1
  38   18   19 ar
  39   19   20 ar
  40   19   54 1
  41   20   55 1
  42   21   22 ar
  43   21   34 ar
  44   22   31 ar
  45   22   56 1
  46   23   24 2
  47   23   25 1
  48   23   26 1
  49   23   36 1
  50   25   27 1
  51   26   29 1
  52   27   28 1
  53   27   57 1
  54   27   58 1
  55   28   59 1
  56   28   60 1
  57   28   61 1
  58   29   30 1
  59   29   62 1
  60   29   63 1
  61   30   64 1
  62   30   65 1
  63   30   66 1
  64   31   32 ar
  65   31   67 1
  66   32   33 ar
  67   32   35 1
  68   33   34 ar
  69   33   68 1
  70   35   36 1
  71   35   69 1
  72   35   70 1
  73   36   71 1
  74   36   72 1

#	End of record

