#	Name: ASD03240008
#	Creating user name:	WinNT
#	Creation time:	15. 06. 2019 20:34

#	Modifying user name:	WinNT
#	Modification time:	15. 06. 2019 20:34

#	Program:	/corina/corina34_cracker 3.40 0067  02.08.2006

@<TRIPOS>MOLECULE
ASD03240008
  77   82    0    0    0
SMALL
NO_CHARGES


@<TRIPOS>ATOM
   1 O1             0.1654    -0.0906     0.3998 O.2     
   2 C2             0.0463     1.0881     0.1318 C.2     
   3 C3             1.2441     1.9352    -0.1002 C.2     
   4 N4            -1.1782     1.6505     0.0339 N.am    
   5 C5            -1.2874     3.0735    -0.2981 C.3     
   6 C6            -0.1272     3.8429     0.3305 C.3     
   7 N7             1.1483     3.2073    -0.0082 N.2     
   8 C8            -0.1294     5.2581    -0.1873 C.ar    
   9 C9            -1.2480     3.2429    -1.7950 C.ar    
  10 C10           -2.0772     4.1633    -2.4085 C.ar    
  11 C11           -2.0411     4.3186    -3.7816 C.ar    
  12 C12           -1.1756     3.5539    -4.5412 C.ar    
  13 C13           -0.3459     2.6342    -3.9277 C.ar    
  14 C14           -0.3788     2.4819    -2.5542 C.ar    
  15 C15           -0.6620     6.2750     0.5829 C.ar    
  16 C16           -0.6640     7.5732     0.1079 C.ar    
  17 C17           -0.1330     7.8546    -1.1370 C.ar    
  18 C18            0.4004     6.8378    -1.9067 C.ar    
  19 C19            0.4063     5.5403    -1.4300 C.ar    
  20 C20           -0.1361     9.2697    -1.6552 C.3     
  21 N21            1.1034     9.9437    -1.2461 N.3     
  22 C22            1.2476    11.2377    -1.9251 C.3     
  23 C23            2.6125    11.8425    -1.5887 C.3     
  24 C24            2.7246    12.0254    -0.0726 C.3     
  25 C25            2.5226    10.6713     0.6132 C.3     
  26 C26            1.1603    10.1004     0.2129 C.3     
  27 N27            4.0513    12.5498     0.2606 N.am    
  28 C28            4.3123    13.7548     0.9086 C.ar    
  29 C29            5.7000    13.8595     1.0224 C.ar    
  30 N30            6.2391    12.7149     0.4399 N.am    
  31 C31            5.2258    11.9465    -0.0024 C.2     
  32 C32            3.5006    14.7623     1.4076 C.ar    
  33 C33            4.0684    15.8650     2.0150 C.ar    
  34 C34            5.4443    15.9688     2.1277 C.ar    
  35 C35            6.2608    14.9705     1.6338 C.ar    
  36 O36            5.3527    10.8736    -0.5624 O.2     
  37 C37            2.5665     1.2985    -0.4421 C.3     
  38 C38            3.6551     2.3730    -0.4804 C.3     
  39 C39            3.8463     2.9555     0.9214 C.3     
  40 C40            4.9689     1.7512    -0.9580 C.3     
  41 H41           -1.9757     1.1184     0.1815 H       
  42 H42           -2.2304     3.4634     0.0848 H       
  43 H43           -0.2499     3.8584     1.4134 H       
  44 H44           -2.7534     4.7607    -1.8150 H       
  45 H45           -2.6894     5.0372    -4.2609 H       
  46 H46           -1.1480     3.6748    -5.6141 H       
  47 H47            0.3301     2.0365    -4.5212 H       
  48 H48            0.2695     1.7633    -2.0748 H       
  49 H49           -1.0768     6.0552     1.5555 H       
  50 H50           -1.0807     8.3676     0.7094 H       
  51 H51            0.8149     7.0576    -2.8795 H       
  52 H52            0.8230     4.7459    -2.0314 H       
  53 H53           -0.2013     9.2581    -2.7431 H       
  54 H54           -0.9929     9.8047    -1.2455 H       
  55 H55            1.1701    11.0930    -3.0027 H       
  56 H56            0.4592    11.9126    -1.5919 H       
  57 H57            3.4016    11.1746    -1.9340 H       
  58 H58            2.7129    12.8102    -2.0803 H       
  59 H59            1.9599    12.7236     0.2676 H       
  60 H60            3.3103     9.9850     0.3025 H       
  61 H61            2.5588    10.8021     1.6947 H       
  62 H62            0.3723    10.7806     0.5361 H       
  63 H63            1.0195     9.1297     0.6882 H       
  64 H64            7.1835    12.5053     0.3685 H       
  65 H65            2.4269    14.6849     1.3211 H       
  66 H66            3.4363    16.6499     2.4033 H       
  67 H67            5.8810    16.8342     2.6040 H       
  68 H68            7.3338    15.0547     1.7239 H       
  69 H69            2.8174     0.5540     0.3134 H       
  70 H70            2.4967     0.8171    -1.4175 H       
  71 H71            3.3583     3.1666    -1.1662 H       
  72 H72            2.9503     3.5035     1.2125 H       
  73 H73            4.0236     2.1464     1.6299 H       
  74 H74            4.7014     3.6314     0.9204 H       
  75 H75            4.8326     1.3363    -1.9567 H       
  76 H76            5.7444     2.5167    -0.9853 H       
  77 H77            5.2657     0.9576    -0.2722 H       
@<TRIPOS>BOND
   1    1    2 2
   2    2    3 1
   3    2    4 am
   4    3   37 1
   5    3    7 2
   6    4    5 1
   7    4   41 1
   8    5    6 1
   9    5    9 1
  10    5   42 1
  11    6    7 1
  12    6    8 1
  13    6   43 1
  14    8   15 ar
  15    8   19 ar
  16    9   10 ar
  17    9   14 ar
  18   10   11 ar
  19   10   44 1
  20   11   12 ar
  21   11   45 1
  22   12   13 ar
  23   12   46 1
  24   13   14 ar
  25   13   47 1
  26   14   48 1
  27   15   16 ar
  28   15   49 1
  29   16   17 ar
  30   16   50 1
  31   17   18 ar
  32   17   20 1
  33   18   19 ar
  34   18   51 1
  35   19   52 1
  36   20   21 1
  37   20   53 1
  38   20   54 1
  39   21   22 1
  40   21   26 1
  41   22   23 1
  42   22   55 1
  43   22   56 1
  44   23   24 1
  45   23   57 1
  46   23   58 1
  47   24   25 1
  48   24   27 1
  49   24   59 1
  50   25   26 1
  51   25   60 1
  52   25   61 1
  53   26   62 1
  54   26   63 1
  55   27   28 1
  56   27   31 am
  57   28   29 ar
  58   28   32 ar
  59   29   30 1
  60   29   35 ar
  61   30   31 am
  62   30   64 1
  63   31   36 2
  64   32   33 ar
  65   32   65 1
  66   33   34 ar
  67   33   66 1
  68   34   35 ar
  69   34   67 1
  70   35   68 1
  71   37   38 1
  72   37   69 1
  73   37   70 1
  74   38   40 1
  75   38   39 1
  76   38   71 1
  77   39   72 1
  78   39   73 1
  79   39   74 1
  80   40   75 1
  81   40   76 1
  82   40   77 1

#	End of record

