#	Name: ASD06020142
#	Creating user name:	WinNT
#	Creation time:	15. 06. 2019 21:04

#	Modifying user name:	WinNT
#	Modification time:	15. 06. 2019 21:04

#	Program:	/corina/corina34_cracker 3.40 0067  02.08.2006

@<TRIPOS>MOLECULE
ASD06020142
  38   41    0    0    0
SMALL
NO_CHARGES


@<TRIPOS>ATOM
   1 N1            -0.0167     1.3825     0.0096 N.pl3   
   2 C2             1.6730    -1.7564    -0.1799 C.ar    
   3 N3             1.4499    -0.4581    -0.1511 N.ar    
   4 C4             0.2143     0.0155    -0.0208 C.ar    
   5 C5            -0.8471    -0.8859     0.0855 C.ar    
   6 C6            -0.5653    -2.2373     0.0503 C.ar    
   7 N7             0.6933    -2.6322    -0.0821 N.ar    
   8 C8            -1.6749    -3.2509     0.1616 C.3     
   9 C9             1.0571     2.2707     0.0147 C.ar    
  10 C10            0.8213     3.6468    -0.0677 C.ar    
  11 C11            1.9031     4.5341    -0.0617 C.ar    
  12 C12            3.2015     3.9684     0.0301 C.ar    
  13 C13            3.3401     2.6168     0.1070 C.ar    
  14 N14            2.2915     1.8079     0.1028 N.ar    
  15 S15           -0.6638     4.5839    -0.1872 S.3     
  16 C16            0.2683     6.0753    -0.2197 C.2     
  17 N17            1.5330     5.8133    -0.1456 N.2     
  18 F18            4.2919     4.7659     0.0407 F       
  19 C19           -0.3095     7.4307    -0.3169 C.ar    
  20 C20            0.5280     8.5498    -0.3347 C.ar    
  21 C21           -0.0151     9.8137    -0.4260 C.ar    
  22 C22           -1.3944     9.9761    -0.5005 C.ar    
  23 C23           -2.2310     8.8650    -0.4831 C.ar    
  24 C24           -1.6950     7.5977    -0.3973 C.ar    
  25 Cl25          -2.7398     6.2114    -0.3829 Cl      
  26 Cl26           2.2498     8.3484    -0.2412 Cl      
  27 N27           -1.9397    11.2552    -0.5923 N.pl3   
  28 H28           -0.9258     1.7206     0.0233 H       
  29 H29            2.6864    -2.1126    -0.2913 H       
  30 H30           -1.8628    -0.5349     0.1928 H       
  31 H31           -2.0489    -3.4909    -0.8337 H       
  32 H32           -1.2941    -4.1561     0.6346 H       
  33 H33           -2.4843    -2.8389     0.7643 H       
  34 H34            4.3310     2.1929     0.1763 H       
  35 H35            0.6313    10.6787    -0.4395 H       
  36 H36           -3.3016     8.9950    -0.5408 H       
  37 H37           -1.3574    12.0309    -0.6042 H       
  38 H38           -2.9015    11.3699    -0.6443 H       
@<TRIPOS>BOND
   1    1    4 1
   2    1    9 1
   3    1   28 1
   4    2    3 ar
   5    2    7 ar
   6    2   29 1
   7    3    4 ar
   8    4    5 ar
   9    5    6 ar
  10    5   30 1
  11    6    7 ar
  12    6    8 1
  13    8   31 1
  14    8   32 1
  15    8   33 1
  16    9   10 ar
  17    9   14 ar
  18   10   11 ar
  19   10   15 1
  20   11   12 ar
  21   11   17 1
  22   12   13 ar
  23   12   18 1
  24   13   14 ar
  25   13   34 1
  26   15   16 1
  27   16   17 2
  28   16   19 1
  29   19   20 ar
  30   19   24 ar
  31   20   21 ar
  32   20   26 1
  33   21   22 ar
  34   21   35 1
  35   22   23 ar
  36   22   27 1
  37   23   24 ar
  38   23   36 1
  39   24   25 1
  40   27   37 1
  41   27   38 1

#	End of record

