#	Name: ASD07300250
#	Creating user name:	WinNT
#	Creation time:	15. 06. 2019 21:09

#	Modifying user name:	WinNT
#	Modification time:	15. 06. 2019 21:09

#	Program:	/corina/corina34_cracker 3.40 0067  02.08.2006

@<TRIPOS>MOLECULE
ASD07300250
  41   43    0    0    0
SMALL
NO_CHARGES


@<TRIPOS>ATOM
   1 C1            -0.0184     1.5028     0.0103 C.2     
   2 C2             0.0021    -0.0041     0.0020 C.3     
   3 O3             1.0197     2.1211     0.0037 O.2     
   4 O4            -1.1898     2.1580     0.0194 O.3     
   5 C5            -1.1335     3.6089     0.0270 C.3     
   6 C6            -4.0679     6.0168     0.0534 C.ar    
   7 C7            -2.7553     5.5350     0.0452 C.ar    
   8 C8            -2.5337     4.1659     0.0367 C.ar    
   9 C9            -3.6356     3.3229     0.0369 C.ar    
  10 C10           -4.9056     3.8683     0.0454 C.ar    
  11 N11           -5.0879     5.1746     0.0529 N.ar    
  12 C12           -2.6817     7.7523     0.0490 C.2     
  13 N13           -3.9820     7.4044     0.0556 N.am    
  14 N14           -1.9156     6.6448     0.0476 N.am    
  15 O15           -2.2621     8.8945     0.0484 O.2     
  16 C16           -5.0679     8.2927     0.0633 C.ar    
  17 C17           -4.8443     9.6628     0.0647 C.ar    
  18 C18           -5.9135    10.5366     0.0718 C.ar    
  19 C19           -7.2109    10.0456     0.0776 C.ar    
  20 C20           -7.4349     8.6766     0.0768 C.ar    
  21 C21           -6.3665     7.8019     0.0639 C.ar    
  22 O22           -8.2633    10.9064     0.0847 O.3     
  23 C23           -0.4509     6.6136     0.0411 C.3     
  24 C24            0.0527     6.6106    -1.4036 C.3     
  25 H25            0.0168    -0.3729     1.0276 H       
  26 H26           -0.8878    -0.3767    -0.5053 H       
  27 H27            0.8920    -0.3525    -0.5222 H       
  28 H28           -0.6017     3.9472     0.9164 H       
  29 H29           -0.6102     3.9569    -0.8636 H       
  30 H30           -3.5023     2.2512     0.0301 H       
  31 H31           -5.7641     3.2130     0.0452 H       
  32 H32           -3.8342    10.0452     0.0605 H       
  33 H33           -5.7396    11.6025     0.0732 H       
  34 H34           -8.4452     8.2948     0.0820 H       
  35 H35           -6.5410     6.7361     0.0583 H       
  36 H36           -8.5723    11.1571    -0.7967 H       
  37 H37           -0.0665     7.4929     0.5580 H       
  38 H38           -0.1044     5.7133     0.5486 H       
  39 H39            1.1424     6.5874    -1.4085 H       
  40 H40           -0.3317     5.7313    -1.9206 H       
  41 H41           -0.2938     7.5108    -1.9111 H       
@<TRIPOS>BOND
   1    1    2 1
   2    1    3 2
   3    1    4 1
   4    2   25 1
   5    2   26 1
   6    2   27 1
   7    4    5 1
   8    5    8 1
   9    5   28 1
  10    5   29 1
  11    6    7 ar
  12    6   11 ar
  13    6   13 1
  14    7    8 ar
  15    7   14 1
  16    8    9 ar
  17    9   10 ar
  18    9   30 1
  19   10   11 ar
  20   10   31 1
  21   12   13 am
  22   12   14 am
  23   12   15 2
  24   13   16 1
  25   14   23 1
  26   16   17 ar
  27   16   21 ar
  28   17   18 ar
  29   17   32 1
  30   18   19 ar
  31   18   33 1
  32   19   20 ar
  33   19   22 1
  34   20   21 ar
  35   20   34 1
  36   21   35 1
  37   22   36 1
  38   23   24 1
  39   23   37 1
  40   23   38 1
  41   24   39 1
  42   24   40 1
  43   24   41 1

#	End of record

