#	Name: ASD02039173
#	Creating user name:	WinNT
#	Creation time:	15. 06. 2019 20:17

#	Modifying user name:	WinNT
#	Modification time:	15. 06. 2019 20:17

#	Program:	/corina/corina34_cracker 3.40 0067  02.08.2006

@<TRIPOS>MOLECULE
ASD02039173
  43   46    0    0    0
SMALL
NO_CHARGES


@<TRIPOS>ATOM
   1 N1            -0.0010     1.2806     0.2549 N.2     
   2 C2             0.0074    -0.0198     0.1287 C.2     
   3 N3             1.2988    -0.4140     0.1373 N.2     
   4 C4             2.0014     0.6841     0.2697 C.2     
   5 O5             1.1344     1.6992     0.3369 O.3     
   6 C6             3.5037     0.7838     0.3345 C.3     
   7 O7             4.0277     0.9454    -0.9851 O.3     
   8 C8             5.3779     1.0517    -1.1044 C.ar    
   9 N9            -1.1049    -0.8433     0.0085 N.pl3   
  10 C10           -2.3915    -0.3042     0.1293 C.ar    
  11 C11           -3.4565    -0.8915    -0.5409 C.ar    
  12 C12           -4.7251    -0.3591    -0.4213 C.ar    
  13 C13           -4.9356     0.7621     0.3678 C.ar    
  14 C14           -3.8723     1.3493     1.0376 C.ar    
  15 C15           -2.6041     0.8145     0.9239 C.ar    
  16 C16            6.1803     1.0007     0.0332 C.ar    
  17 C17            7.5496     1.1067    -0.0684 C.ar    
  18 C18            8.1435     1.2660    -1.3162 C.ar    
  19 C19            7.3367     1.3176    -2.4682 C.ar    
  20 C20            5.9472     1.2039    -2.3525 C.ar    
  21 O21           -6.1850     1.2863     0.4844 O.3     
  22 N22            9.5139     1.3751    -1.4389 N.am    
  23 C23           10.0903     1.5300    -2.6436 C.2     
  24 C24            9.3259     1.5877    -3.8285 C.2     
  25 C25            7.9748     1.4866    -3.7751 C.2     
  26 O26           11.3036     1.6234    -2.7141 O.2     
  27 F27           -5.9279     2.1327     2.6173 F       
  28 C28           -6.3292     2.4414     1.3132 C.3     
  29 F29           -5.5324     3.4768     0.8128 F       
  30 H30            3.7849     1.6420     0.9447 H       
  31 H31            3.9093    -0.1257     0.7776 H       
  32 H32           -0.9902    -1.7918    -0.1591 H       
  33 H33           -3.2927    -1.7640    -1.1559 H       
  34 H34           -5.5536    -0.8157    -0.9425 H       
  35 H35           -4.0370     2.2223     1.6518 H       
  36 H36           -1.7764     1.2716     1.4458 H       
  37 H37            5.7241     0.8771     1.0043 H       
  38 H38            8.1620     1.0665     0.8202 H       
  39 H39            5.3234     1.2429    -3.2333 H       
  40 H40           10.0692     1.3397    -0.6444 H       
  41 H41            9.8189     1.7129    -4.7812 H       
  42 H42            7.3822     1.5294    -4.6770 H       
  43 H43           -7.3727     2.7564     1.3191 H       
@<TRIPOS>BOND
   1    1    2 2
   2    1    5 1
   3    2    3 1
   4    2    9 1
   5    3    4 2
   6    4    5 1
   7    4    6 1
   8    6    7 1
   9    6   30 1
  10    6   31 1
  11    7    8 1
  12    8   16 ar
  13    8   20 ar
  14    9   10 1
  15    9   32 1
  16   10   11 ar
  17   10   15 ar
  18   11   12 ar
  19   11   33 1
  20   12   13 ar
  21   12   34 1
  22   13   14 ar
  23   13   21 1
  24   14   15 ar
  25   14   35 1
  26   15   36 1
  27   16   17 ar
  28   16   37 1
  29   17   18 ar
  30   17   38 1
  31   18   19 ar
  32   18   22 1
  33   19   20 ar
  34   19   25 1
  35   20   39 1
  36   21   28 1
  37   22   23 am
  38   22   40 1
  39   23   24 1
  40   23   26 2
  41   24   25 2
  42   24   41 1
  43   25   42 1
  44   27   28 1
  45   28   29 1
  46   28   43 1

#	End of record

