#	Name: ASD08150931
#	Creating user name:	WinNT
#	Creation time:	15. 06. 2019 21:16

#	Modifying user name:	WinNT
#	Modification time:	15. 06. 2019 21:16

#	Program:	/corina/corina34_cracker 3.40 0067  02.08.2006

@<TRIPOS>MOLECULE
ASD08150931
  57   61    0    0    0
SMALL
NO_CHARGES


@<TRIPOS>ATOM
   1 C1            -1.5707    -2.2873    -0.7151 C.3     
   2 C2            -1.9256    -1.3981     0.4784 C.3     
   3 N3            -1.3496    -1.9693     1.7031 N.3     
   4 C4            -1.6011    -1.0981     2.8595 C.3     
   5 C5            -1.0565    -1.7646     4.1250 C.3     
   6 N6             0.3820    -2.0170     3.9624 N.3     
   7 C7             0.6335    -2.8883     2.8060 C.3     
   8 C8             0.0889    -2.2218     1.5404 C.3     
   9 N9            -0.4165    -4.5273     4.9239 N.ar    
  10 C10           -0.8117    -5.7038     5.3462 C.ar    
  11 C11           -0.2908    -6.2798     6.5029 C.ar    
  12 C12            0.6571    -5.6155     7.2277 C.ar    
  13 C13            1.0789    -4.3526     6.7704 C.ar    
  14 C14            2.0505    -3.6121     7.4644 C.ar    
  15 C15            2.4380    -2.3924     6.9954 C.ar    
  16 C16            1.8848    -1.8636     5.8332 C.ar    
  17 C17            0.9291    -2.5596     5.1256 C.ar    
  18 C18            0.5072    -3.8258     5.5864 C.ar    
  19 C19            2.3357    -0.5118     5.3429 C.3     
  20 C20            1.3885     0.5657     5.8748 C.3     
  21 N21            3.6947    -0.2470     5.8219 N.pl3   
  22 N22            6.5789     0.4651     6.6123 N.2     
  23 C23            7.7564     1.0152     6.5445 C.2     
  24 N24            7.8432     1.7936     5.4288 N.pl3   
  25 C25            6.6396     1.7115     4.7753 C.ar    
  26 N26            6.1387     2.2359     3.6617 N.ar    
  27 C27            4.9085     1.9587     3.2839 C.ar    
  28 N28            4.1172     1.1601     3.9765 N.ar    
  29 C29            4.5310     0.5892     5.1031 C.ar    
  30 C30            5.8373     0.8543     5.5475 C.ar    
  31 Cl31           2.7559    -4.2493     8.9170 Cl      
  32 O32           -2.1404    -3.5845    -0.5287 O.3     
  33 H33           -1.9670    -1.8443    -1.6287 H       
  34 H34           -0.4870    -2.3742    -0.7938 H       
  35 H35           -1.5221    -0.3981     0.3192 H       
  36 H36           -3.0095    -1.3407     0.5791 H       
  37 H37           -1.1018    -0.1409     2.7090 H       
  38 H38           -2.6737    -0.9362     2.9664 H       
  39 H39           -1.2160    -1.1072     4.9797 H       
  40 H40           -1.5750    -2.7090     4.2905 H       
  41 H41            1.7061    -3.0502     2.6990 H       
  42 H42            0.1342    -3.8455     2.9565 H       
  43 H43            0.2485    -2.8792     0.6857 H       
  44 H44            0.6074    -1.2774     1.3750 H       
  45 H45           -1.5608    -6.2404     4.7828 H       
  46 H46           -0.6366    -7.2505     6.8263 H       
  47 H47            1.0715    -6.0468     8.1269 H       
  48 H48            3.1854    -1.8282     7.5336 H       
  49 H49            2.3256    -0.4986     4.2530 H       
  50 H50            1.4636     0.6113     6.9612 H       
  51 H51            1.6625     1.5317     5.4508 H       
  52 H52            0.3648     0.3216     5.5912 H       
  53 H53            4.0083    -0.6578     6.6427 H       
  54 H54            8.5478     0.8760     7.2661 H       
  55 H55            8.6143     2.3110     5.1485 H       
  56 H56            4.5321     2.4015     2.3736 H       
  57 H57           -1.9553    -4.2025    -1.2490 H       
@<TRIPOS>BOND
   1    1    2 1
   2    1   32 1
   3    1   33 1
   4    1   34 1
   5    2    3 1
   6    2   35 1
   7    2   36 1
   8    3    4 1
   9    3    8 1
  10    4    5 1
  11    4   37 1
  12    4   38 1
  13    5    6 1
  14    5   39 1
  15    5   40 1
  16    6    7 1
  17    6   17 1
  18    7    8 1
  19    7   41 1
  20    7   42 1
  21    8   43 1
  22    8   44 1
  23    9   10 ar
  24    9   18 ar
  25   10   11 ar
  26   10   45 1
  27   11   12 ar
  28   11   46 1
  29   12   13 ar
  30   12   47 1
  31   13   14 ar
  32   13   18 ar
  33   14   15 ar
  34   14   31 1
  35   15   16 ar
  36   15   48 1
  37   16   17 ar
  38   16   19 1
  39   17   18 ar
  40   19   20 1
  41   19   21 1
  42   19   49 1
  43   20   50 1
  44   20   51 1
  45   20   52 1
  46   21   29 1
  47   21   53 1
  48   22   23 2
  49   22   30 1
  50   23   24 1
  51   23   54 1
  52   24   25 1
  53   24   55 1
  54   25   26 ar
  55   25   30 ar
  56   26   27 ar
  57   27   28 ar
  58   27   56 1
  59   28   29 ar
  60   29   30 ar
  61   32   57 1

#	End of record

