#	Name: ASD09116508
#	Creating user name:	WinNT
#	Creation time:	15. 06. 2019 21:21

#	Modifying user name:	WinNT
#	Modification time:	15. 06. 2019 21:21

#	Program:	/corina/corina34_cracker 3.40 0067  02.08.2006

@<TRIPOS>MOLECULE
ASD09116508
  77   84    0    0    0
SMALL
NO_CHARGES


@<TRIPOS>ATOM
   1 N1            -0.0559     1.4784    -0.2573 N.2     
   2 N2            -0.0642     0.1174    -0.6029 N.pl3   
   3 C3             1.1991     1.8582    -0.2278 C.2     
   4 N4             1.9779     0.8143    -0.5349 N.2     
   5 C5             1.2303    -0.2440    -0.7641 C.2     
   6 N6             1.6862    -1.5025    -1.1080 N.pl3   
   7 C7            -1.1859    -0.7012    -0.7511 C.ar    
   8 N8             1.6494     3.1435     0.0745 N.pl3   
   9 C9             3.0193     3.3956     0.1862 C.ar    
  10 C10            3.5217     4.6563    -0.1108 C.ar    
  11 C11            3.8812     2.3877     0.5999 C.ar    
  12 C12            5.2345     2.6403     0.7091 C.ar    
  13 C13            5.7319     3.8949     0.4077 C.ar    
  14 C14            4.8761     4.9020     0.0006 C.ar    
  15 N15           -1.1264    -1.7727    -1.5270 N.ar    
  16 N16           -2.1354    -2.5460    -1.7116 N.ar    
  17 C17           -3.3070    -2.3137    -1.1326 C.ar    
  18 C18           -3.4502    -1.2336    -0.2657 C.ar    
  19 C19           -2.3695    -0.3935    -0.0767 C.ar    
  20 C20           -4.4824    -3.1573    -1.4457 C.ar    
  21 C21           -5.6747    -2.5509    -1.8551 C.ar    
  22 S22           -5.7288    -0.7987    -2.0380 S.3     
  23 C23           -5.7344    -0.2039    -0.3188 C.3     
  24 C24           -4.7277    -1.0284     0.4893 C.3     
  25 C25           -4.4152    -4.5427    -1.3338 C.ar    
  26 C26           -5.5324    -5.3058    -1.6125 C.ar    
  27 C27           -6.7159    -4.7013    -1.9997 C.ar    
  28 C28           -6.7923    -3.3260    -2.1214 C.ar    
  29 C29            7.2092     4.1669     0.5285 C.3     
  30 C30            7.7648     4.5899    -0.8342 C.3     
  31 C31            7.4410     5.2948     1.5378 C.3     
  32 C32            8.9372     5.6078     1.6110 C.3     
  33 N33            9.4204     6.0079     0.2833 N.3     
  34 C34            9.2517     4.9234    -0.6922 C.3     
  35 C35           10.8204     6.4488     0.3434 C.3     
  36 C36           11.3179     6.8731    -1.0721 C.3     
  37 C37           10.9460     7.7284     1.2015 C.3     
  38 C38           11.5077     8.8053     0.2236 C.3     
  39 C39           12.8534     7.0828    -0.8996 C.3     
  40 C40           12.9790     8.3624    -0.0415 C.3     
  41 C41           10.8251     8.3625    -1.1185 C.3     
  42 H42            2.6381    -1.6650    -1.2003 H       
  43 H43            1.0544    -2.2232    -1.2572 H       
  44 H44            1.0116     3.8622     0.2072 H       
  45 H45            2.8538     5.4433    -0.4287 H       
  46 H46            3.4934     1.4079     0.8362 H       
  47 H47            5.9051     1.8572     1.0307 H       
  48 H48            5.2678     5.8807    -0.2341 H       
  49 H49           -2.4399     0.4735     0.5634 H       
  50 H50           -5.4487     0.8477    -0.2948 H       
  51 H51           -6.7307    -0.3243     0.1065 H       
  52 H52           -5.1657    -2.0000     0.7181 H       
  53 H53           -4.5100    -0.5090     1.4225 H       
  54 H54           -3.4943    -5.0189    -1.0311 H       
  55 H55           -5.4821    -6.3813    -1.5281 H       
  56 H56           -7.5851    -5.3075    -2.2080 H       
  57 H57           -7.7179    -2.8583    -2.4227 H       
  58 H58            7.7194     3.2646     0.8657 H       
  59 H59            7.6412     3.7743    -1.5467 H       
  60 H60            7.2271     5.4689    -1.1895 H       
  61 H61            6.8981     6.1849     1.2198 H       
  62 H62            7.0860     4.9829     2.5200 H       
  63 H63            9.1041     6.4203     2.3182 H       
  64 H64            9.4779     4.7213     1.9423 H       
  65 H65            9.7909     4.0400    -0.3501 H       
  66 H66            9.6470     5.2386    -1.6578 H       
  67 H67           11.4507     5.6559     0.7459 H       
  68 H68           11.0149     6.2280    -1.8969 H       
  69 H69            9.9690     8.0304     1.5788 H       
  70 H70           11.6394     7.5660     2.0267 H       
  71 H71           11.3698     9.8430     0.5274 H       
  72 H72           13.2972     6.2327    -0.3814 H       
  73 H73           13.3285     7.2278    -1.8698 H       
  74 H74           13.5159     9.1365    -0.5898 H       
  75 H75           13.4845     8.1414     0.8986 H       
  76 H76           11.2267     8.8994    -1.9779 H       
  77 H77            9.7387     8.4353    -1.0681 H       
@<TRIPOS>BOND
   1    1    2 1
   2    1    3 2
   3    2    7 1
   4    2    5 1
   5    3    4 1
   6    3    8 1
   7    4    5 2
   8    5    6 1
   9    6   42 1
  10    6   43 1
  11    7   15 ar
  12    7   19 ar
  13    8    9 1
  14    8   44 1
  15    9   10 ar
  16    9   11 ar
  17   10   14 ar
  18   10   45 1
  19   11   12 ar
  20   11   46 1
  21   12   13 ar
  22   12   47 1
  23   13   14 ar
  24   13   29 1
  25   14   48 1
  26   15   16 ar
  27   16   17 ar
  28   17   18 ar
  29   17   20 1
  30   18   19 ar
  31   18   24 1
  32   19   49 1
  33   20   21 ar
  34   20   25 ar
  35   21   22 1
  36   21   28 ar
  37   22   23 1
  38   23   24 1
  39   23   50 1
  40   23   51 1
  41   24   52 1
  42   24   53 1
  43   25   26 ar
  44   25   54 1
  45   26   27 ar
  46   26   55 1
  47   27   28 ar
  48   27   56 1
  49   28   57 1
  50   29   30 1
  51   29   31 1
  52   29   58 1
  53   30   34 1
  54   30   59 1
  55   30   60 1
  56   31   32 1
  57   31   61 1
  58   31   62 1
  59   32   33 1
  60   32   63 1
  61   32   64 1
  62   33   34 1
  63   33   35 1
  64   34   65 1
  65   34   66 1
  66   35   36 1
  67   35   37 1
  68   35   67 1
  69   36   39 1
  70   36   41 1
  71   36   68 1
  72   37   38 1
  73   37   69 1
  74   37   70 1
  75   38   40 1
  76   38   41 1
  77   38   71 1
  78   39   40 1
  79   39   72 1
  80   39   73 1
  81   40   74 1
  82   40   75 1
  83   41   76 1
  84   41   77 1

#	End of record

