#	Name: ASD01885848
#	Creating user name:	WinNT
#	Creation time:	15. 06. 2019 19:50

#	Modifying user name:	WinNT
#	Modification time:	15. 06. 2019 19:50

#	Program:	/corina/corina34_cracker 3.40 0067  02.08.2006

@<TRIPOS>MOLECULE
ASD01885848
  47   50    0    0    0
SMALL
NO_CHARGES


@<TRIPOS>ATOM
   1 C1            -0.0172     1.4136     0.0098 C.ar    
   2 C2             0.0021    -0.0041     0.0020 C.ar    
   3 C3            -1.2278    -0.7095     0.0099 C.ar    
   4 C4            -2.4016     0.0313     0.0251 C.ar    
   5 C5            -2.3344     1.4291     0.0320 C.ar    
   6 N6            -1.1792     2.0669     0.0299 N.ar    
   7 C7             1.2053     2.1129     0.0019 C.ar    
   8 C8             2.3775     1.4229    -0.0130 C.ar    
   9 C9             2.3912     0.0293    -0.0205 C.ar    
  10 C10            1.2286    -0.6812    -0.0128 C.ar    
  11 C11           -1.2590    -2.1899     0.0017 C.ar    
  12 C12           -3.5929     2.2132     0.0477 C.2     
  13 N13           -3.5476     3.5602     0.0546 N.am    
  14 O14           -4.6649     1.6414     0.0544 O.2     
  15 C15            3.6820     2.1773    -0.0219 C.3     
  16 C16           -2.0404    -2.8786     0.9300 C.ar    
  17 C17           -2.0665    -4.2574     0.9180 C.ar    
  18 C18           -1.3179    -4.9589    -0.0139 C.ar    
  19 C19           -0.5401    -4.2794    -0.9381 C.ar    
  20 C20           -0.5117    -2.9005    -0.9379 C.ar    
  21 F21           -1.3425    -6.3097    -0.0181 F       
  22 C22            4.1306     2.4217     1.3959 C.ar    
  23 C23            4.9377     1.5006     2.0444 C.ar    
  24 C24            5.3275     1.7685     3.3525 C.ar    
  25 C25            4.8970     2.9408     3.9570 C.ar    
  26 N26            4.1296     3.7914     3.3050 N.ar    
  27 C27            3.7467     3.5698     2.0627 C.ar    
  28 O28            6.1183     0.8943     4.0289 O.3     
  29 C29            6.4738     1.2436     5.3682 C.3     
  30 H30           -3.3596    -0.4674     0.0311 H       
  31 H31            1.2120     3.1929     0.0072 H       
  32 H32            3.3357    -0.4944    -0.0327 H       
  33 H33            1.2523    -1.7609    -0.0184 H       
  34 H34           -2.6918     4.0167     0.0492 H       
  35 H35           -4.3709     4.0731     0.0649 H       
  36 H36            4.4370     1.5914    -0.5460 H       
  37 H37            3.5460     3.1322    -0.5296 H       
  38 H38           -2.6236    -2.3328     1.6569 H       
  39 H39           -2.6711    -4.7914     1.6361 H       
  40 H40            0.0415    -4.8305    -1.6623 H       
  41 H41            0.0915    -2.3718    -1.6611 H       
  42 H42            5.2560     0.5966     1.5465 H       
  43 H43            5.1935     3.1586     4.9725 H       
  44 H44            3.1176     4.2912     1.5624 H       
  45 H45            7.0174     2.1883     5.3652 H       
  46 H46            5.5702     1.3462     5.9689 H       
  47 H47            7.1051     0.4625     5.7919 H       
@<TRIPOS>BOND
   1    1    2 ar
   2    1    7 ar
   3    1    6 ar
   4    2    3 ar
   5    2   10 ar
   6    3    4 ar
   7    3   11 1
   8    4    5 ar
   9    4   30 1
  10    5    6 ar
  11    5   12 1
  12    7    8 ar
  13    7   31 1
  14    8   15 1
  15    8    9 ar
  16    9   10 ar
  17    9   32 1
  18   10   33 1
  19   11   16 ar
  20   11   20 ar
  21   12   13 am
  22   12   14 2
  23   13   34 1
  24   13   35 1
  25   15   22 1
  26   15   36 1
  27   15   37 1
  28   16   17 ar
  29   16   38 1
  30   17   18 ar
  31   17   39 1
  32   18   19 ar
  33   18   21 1
  34   19   20 ar
  35   19   40 1
  36   20   41 1
  37   22   23 ar
  38   22   27 ar
  39   23   24 ar
  40   23   42 1
  41   24   25 ar
  42   24   28 1
  43   25   26 ar
  44   25   43 1
  45   26   27 ar
  46   27   44 1
  47   28   29 1
  48   29   45 1
  49   29   46 1
  50   29   47 1

#	End of record

