#	Name: ASD01914382
#	Creating user name:	WinNT
#	Creation time:	15. 06. 2019 20:03

#	Modifying user name:	WinNT
#	Modification time:	15. 06. 2019 20:03

#	Program:	/corina/corina34_cracker 3.40 0067  02.08.2006

@<TRIPOS>MOLECULE
ASD01914382
  47   48    0    0    0
SMALL
NO_CHARGES


@<TRIPOS>ATOM
   1 C1             0.8742     0.4496     1.9762 C.ar    
   2 C2             0.0387     0.1311     0.9214 C.ar    
   3 C3             0.3852     0.4839    -0.3700 C.ar    
   4 C4             1.5679     1.1555    -0.6102 C.ar    
   5 C5             2.4092     1.4769     0.4470 C.ar    
   6 C6             2.0581     1.1215     1.7427 C.ar    
   7 N7             3.6083     2.1569     0.2070 N.am    
   8 C8             3.6141     3.6185     0.1065 C.3     
   9 C9             3.8421     4.2150     1.4715 C.2     
  10 C10            3.8905     5.6734     1.6367 C.ar    
  11 C11            4.1022     6.2303     2.9041 C.ar    
  12 C12            4.1470     7.5926     3.0528 C.ar    
  13 C13            3.9822     8.4211     1.9479 C.ar    
  14 C14            3.7712     7.8732     0.6872 C.ar    
  15 C15            3.7309     6.5120     0.5266 C.ar    
  16 O16            3.9856     3.4905     2.4336 O.2     
  17 C17            4.7579     1.4674     0.0683 C.2     
  18 O18            5.7801     2.0468    -0.2325 O.2     
  19 C19            4.7734    -0.0236     0.2870 C.3     
  20 C20            6.1929    -0.5257     0.2254 C.2     
  21 O21            7.0991     0.2478     0.0244 O.2     
  22 O22            6.4506    -1.8322     0.3936 O.3     
  23 C23            7.8409    -2.2446     0.3215 C.3     
  24 C24            7.9363    -3.7565     0.5357 C.3     
  25 O25            4.0269     9.7684     2.1006 O.3     
  26 C26            3.8501    10.5607     0.9246 C.3     
  27 H27            0.5986     0.1767     2.9841 H       
  28 H28           -0.8863    -0.3947     1.1065 H       
  29 H29           -0.2694     0.2336    -1.1917 H       
  30 H30            1.8384     1.4302    -1.6190 H       
  31 H31            2.7100     1.3704     2.5670 H       
  32 H32            4.4124     3.9333    -0.5656 H       
  33 H33            2.6552     3.9596    -0.2836 H       
  34 H34            4.2296     5.5879     3.7628 H       
  35 H35            4.3102     8.0231     4.0298 H       
  36 H36            3.6430     8.5208    -0.1675 H       
  37 H37            3.5670     6.0875    -0.4529 H       
  38 H38            4.3494    -0.2518     1.2650 H       
  39 H39            4.1817    -0.5107    -0.4881 H       
  40 H40            8.2450    -1.9902    -0.6584 H       
  41 H41            8.4127    -1.7313     1.0947 H       
  42 H42            7.5322    -4.0109     1.5155 H       
  43 H43            7.3645    -4.2698    -0.2375 H       
  44 H44            8.9800    -4.0660     0.4815 H       
  45 H45            4.6324    10.3214     0.2043 H       
  46 H46            2.8751    10.3479     0.4862 H       
  47 H47            3.9080    11.6173     1.1863 H       
@<TRIPOS>BOND
   1    1    2 ar
   2    1    6 ar
   3    1   27 1
   4    2    3 ar
   5    2   28 1
   6    3    4 ar
   7    3   29 1
   8    4    5 ar
   9    4   30 1
  10    5    6 ar
  11    5    7 1
  12    6   31 1
  13    7    8 1
  14    7   17 am
  15    8    9 1
  16    8   32 1
  17    8   33 1
  18    9   10 1
  19    9   16 2
  20   10   11 ar
  21   10   15 ar
  22   11   12 ar
  23   11   34 1
  24   12   13 ar
  25   12   35 1
  26   13   14 ar
  27   13   25 1
  28   14   15 ar
  29   14   36 1
  30   15   37 1
  31   17   18 2
  32   17   19 1
  33   19   20 1
  34   19   38 1
  35   19   39 1
  36   20   21 2
  37   20   22 1
  38   22   23 1
  39   23   24 1
  40   23   40 1
  41   23   41 1
  42   24   42 1
  43   24   43 1
  44   24   44 1
  45   25   26 1
  46   26   45 1
  47   26   46 1
  48   26   47 1

#	End of record

