#	Name: ASD01840468
#	Creating user name:	WinNT
#	Creation time:	15. 06. 2019 19:37

#	Modifying user name:	WinNT
#	Modification time:	15. 06. 2019 19:37

#	Program:	/corina/corina34_cracker 3.40 0067  02.08.2006

@<TRIPOS>MOLECULE
ASD01840468
  46   49    0    0    0
SMALL
NO_CHARGES


@<TRIPOS>ATOM
   1 C1             0.2611     1.7552    -0.9980 C.ar    
   2 C2             0.3841     0.5320    -1.6195 C.ar    
   3 N3             1.4990    -0.1677    -1.4965 N.ar    
   4 N4             2.4999     0.2427    -0.8111 N.ar    
   5 C5             1.3546     2.2267    -0.2364 C.ar    
   6 C6             1.5104     3.4570     0.5171 C.2     
   7 C7             2.4928     1.4121    -0.1670 C.ar    
   8 S8             3.7250     2.1824     0.8223 S.3     
   9 C9             2.7118     3.5783     1.1344 C.2     
  10 C10           -0.9999     2.5697    -1.1313 C.3     
  11 C11           -0.7562    -0.0106    -2.4419 C.3     
  12 N12            0.5179     4.4243     0.5985 N.pl3   
  13 C13            3.1102     4.7236     1.9514 C.2     
  14 O14            2.3404     5.6527     2.1138 O.2     
  15 N15            4.3297     4.7507     2.5248 N.am    
  16 C16            4.8565     5.8365     3.3677 C.3     
  17 C17            5.9482     5.1855     4.2456 C.3     
  18 C18            6.5537     4.1202     3.2759 C.3     
  19 C19            5.3488     3.6991     2.4166 C.3     
  20 C20            7.0998     6.1885     4.4355 C.3     
  21 N21            8.0453     6.0023     3.3276 N.am    
  22 C22            7.5137     4.9674     2.4116 C.3     
  23 C23            9.2088     6.6639     3.1694 C.2     
  24 C24           10.0861     6.3715     1.9795 C.3     
  25 O25            9.5497     7.4946     3.9846 O.2     
  26 H26           -1.6441     2.3852    -0.2716 H       
  27 H27           -0.7456     3.6287    -1.1742 H       
  28 H28           -1.5220     2.2841    -2.0445 H       
  29 H29           -0.6493     0.3210    -3.4747 H       
  30 H30           -0.7433    -1.1000    -2.4068 H       
  31 H31           -1.7008     0.3547    -2.0389 H       
  32 H32           -0.4028     4.1923     0.4002 H       
  33 H33            0.7452     5.3322     0.8537 H       
  34 H34            5.2900     6.6199     2.7460 H       
  35 H35            4.0638     6.2463     3.9937 H       
  36 H36            5.5674     4.7797     5.1828 H       
  37 H37            7.0327     3.2867     3.7894 H       
  38 H38            4.9449     2.7548     2.7816 H       
  39 H39            5.6590     3.5913     1.3772 H       
  40 H40            6.7093     7.2060     4.4203 H       
  41 H41            7.6013     5.9992     5.3845 H       
  42 H42            8.3227     4.3462     2.0273 H       
  43 H43            6.9701     5.4314     1.5886 H       
  44 H44            9.8107     7.0287     1.1547 H       
  45 H45           11.1291     6.5413     2.2466 H       
  46 H46            9.9531     5.3329     1.6765 H       
@<TRIPOS>BOND
   1    1    2 ar
   2    1    5 ar
   3    1   10 1
   4    2   11 1
   5    2    3 ar
   6    3    4 ar
   7    4    7 ar
   8    5    7 ar
   9    5    6 1
  10    6    9 2
  11    6   12 1
  12    7    8 1
  13    8    9 1
  14    9   13 1
  15   10   26 1
  16   10   27 1
  17   10   28 1
  18   11   29 1
  19   11   30 1
  20   11   31 1
  21   12   32 1
  22   12   33 1
  23   13   14 2
  24   13   15 am
  25   15   16 1
  26   15   19 1
  27   16   17 1
  28   16   34 1
  29   16   35 1
  30   17   20 1
  31   17   18 1
  32   17   36 1
  33   18   19 1
  34   18   22 1
  35   18   37 1
  36   19   38 1
  37   19   39 1
  38   20   21 1
  39   20   40 1
  40   20   41 1
  41   21   22 1
  42   21   23 am
  43   22   42 1
  44   22   43 1
  45   23   24 1
  46   23   25 2
  47   24   44 1
  48   24   45 1
  49   24   46 1

#	End of record

