#	Name: ASD03091470
#	Creating user name:	WinNT
#	Creation time:	15. 06. 2019 20:30

#	Modifying user name:	WinNT
#	Modification time:	15. 06. 2019 20:30

#	Program:	/corina/corina34_cracker 3.40 0067  02.08.2006

@<TRIPOS>MOLECULE
ASD03091470
  38   40    0    0    0
SMALL
NO_CHARGES


@<TRIPOS>ATOM
   1 N1            -0.0163     1.3519     0.0095 N.pl3   
   2 C2             0.0021    -0.0041     0.0020 C.2     
   3 C3             1.1381    -0.7093     0.2660 C.2     
   4 C4             2.3788     0.0267     0.5580 C.2     
   5 C5             2.3734     1.4687     0.2772 C.ar    
   6 C6             3.5462     2.2360     0.2735 C.ar    
   7 N7             3.4819     3.5325     0.0080 N.ar    
   8 C8             2.3374     4.1399    -0.2569 C.ar    
   9 C9             1.1409     3.4582    -0.2709 C.ar    
  10 C10            1.1400     2.0902     0.0024 C.ar    
  11 N11            4.7655     1.6424     0.5463 N.pl3   
  12 C12            5.9894     2.4475     0.5416 C.3     
  13 C13            7.1879     1.5553     0.8711 C.3     
  14 C14            8.4662     2.3961     0.8662 C.3     
  15 O15            3.3632    -0.5331     1.0114 O.2     
  16 C16            1.1243    -2.1921     0.2597 C.ar    
  17 C17            0.8702    -2.8840    -0.9234 C.ar    
  18 C18            0.8584    -4.2638    -0.9240 C.ar    
  19 C19            1.0983    -4.9610     0.2478 C.ar    
  20 C20            1.3507    -4.2785     1.4256 C.ar    
  21 C21            1.3709    -2.8988     1.4356 C.ar    
  22 Cl22           1.0820    -6.6969     0.2404 Cl      
  23 H23           -0.8701     1.8122     0.0160 H       
  24 H24           -0.9091    -0.5401    -0.2190 H       
  25 H25            2.3413     5.1990    -0.4682 H       
  26 H26            0.2179     3.9745    -0.4898 H       
  27 H27            4.8101     0.6931     0.7407 H       
  28 H28            6.1278     2.8925    -0.4438 H       
  29 H29            5.9079     3.2370     1.2887 H       
  30 H30            7.0495     1.1103     1.8565 H       
  31 H31            7.2695     0.7658     0.1241 H       
  32 H32            9.3200     1.7605     1.1010 H       
  33 H33            8.6046     2.8411    -0.1191 H       
  34 H34            8.3847     3.1856     1.6133 H       
  35 H35            0.6826    -2.3411    -1.8380 H       
  36 H36            0.6613    -4.8009    -1.8400 H       
  37 H37            1.5366    -4.8270     2.3372 H       
  38 H38            1.5730    -2.3674     2.3538 H       
@<TRIPOS>BOND
   1    1    2 1
   2    1   10 1
   3    1   23 1
   4    2    3 2
   5    2   24 1
   6    3    4 1
   7    3   16 1
   8    4    5 1
   9    4   15 2
  10    5    6 ar
  11    5   10 ar
  12    6    7 ar
  13    6   11 1
  14    7    8 ar
  15    8    9 ar
  16    8   25 1
  17    9   10 ar
  18    9   26 1
  19   11   12 1
  20   11   27 1
  21   12   13 1
  22   12   28 1
  23   12   29 1
  24   13   14 1
  25   13   30 1
  26   13   31 1
  27   14   32 1
  28   14   33 1
  29   14   34 1
  30   16   17 ar
  31   16   21 ar
  32   17   18 ar
  33   17   35 1
  34   18   19 ar
  35   18   36 1
  36   19   20 ar
  37   19   22 1
  38   20   21 ar
  39   20   37 1
  40   21   38 1

#	End of record

