#	Name: ASD03731221
#	Creating user name:	WinNT
#	Creation time:	15. 06. 2019 20:45

#	Modifying user name:	WinNT
#	Modification time:	15. 06. 2019 20:45

#	Program:	/corina/corina34_cracker 3.40 0067  02.08.2006

@<TRIPOS>MOLECULE
ASD03731221
  60   66    0    0    0
SMALL
NO_CHARGES


@<TRIPOS>ATOM
   1 C1            -0.0181     1.4735     0.0138 C.2     
   2 C2             0.0016    -0.0044     0.0103 C.ar    
   3 C3             1.2179    -0.6893    -0.0012 C.ar    
   4 C4             1.2292    -2.0687    -0.0039 C.ar    
   5 C5             0.0385    -2.7734     0.0044 C.ar    
   6 C6            -1.1706    -2.1008     0.0158 C.ar    
   7 C7            -1.1960    -0.7215     0.0244 C.ar    
   8 O8             1.0264     2.0953     0.0066 O.2     
   9 N9            -1.1942     2.1318     0.0193 N.am    
  10 C10            0.0586    -4.2803     0.0004 C.3     
  11 O11           -2.0655    -1.5150     6.2879 O.3     
  12 C12           -2.2947    -1.5959     7.7070 C.3     
  13 O13           -2.7935    -2.9330     7.8975 O.3     
  14 C14           -2.2668    -3.6690     6.8748 C.ar    
  15 C15           -1.8203    -2.7965     5.8850 C.ar    
  16 C16           -2.1291    -5.0351     6.7062 C.ar    
  17 C17           -1.5476    -5.5478     5.5505 C.ar    
  18 C18           -1.1129    -4.6665     4.5651 C.ar    
  19 C19           -1.2431    -3.3037     4.7330 C.ar    
  20 O20           -1.3045    -6.8426     5.1974 O.3     
  21 C21           -0.5657    -5.5110     3.4456 C.3     
  22 C22           -1.0912    -6.9150     3.7745 C.3     
  23 N23            0.0768    -4.7720     1.3803 N.am    
  24 C24           -1.0322    -5.0400     2.0982 C.2     
  25 C25            0.9325    -5.4748     3.3829 C.ar    
  26 C26            1.9301    -5.7838     4.2804 C.ar    
  27 C27            3.2575    -5.6437     3.9164 C.ar    
  28 C28            3.5798    -5.1920     2.6496 C.ar    
  29 C29            2.5842    -4.8802     1.7474 C.ar    
  30 C30            1.2453    -5.0186     2.1049 C.ar    
  31 O31           -2.1814    -4.9239     1.7284 O.2     
  32 C32           -1.2148     3.5216     0.1322 C.ar    
  33 C33           -2.1859     4.2580    -0.5388 C.ar    
  34 C34           -2.2090     5.6304    -0.4300 C.ar    
  35 C35           -1.2556     6.2836     0.3563 C.ar    
  36 C36           -0.2818     5.5405     1.0294 C.ar    
  37 C37           -0.2678     4.1680     0.9202 C.ar    
  38 C38           -1.2763     7.7108     0.4714 C.1     
  39 N39           -1.2927     8.8430     0.5628 N.1     
  40 H40            2.1480    -0.1404    -0.0083 H       
  41 H41            2.1696    -2.5998    -0.0128 H       
  42 H42           -2.0964    -2.6568     0.0219 H       
  43 H43           -2.1404    -0.1977     0.0375 H       
  44 H44           -2.0262     1.6388    -0.0553 H       
  45 H45           -0.8307    -4.6541    -0.5069 H       
  46 H46            0.9490    -4.6304    -0.5218 H       
  47 H47           -1.3629    -1.4531     8.2542 H       
  48 H48           -3.0385    -0.8619     8.0173 H       
  49 H49           -2.4753    -5.7082     7.4765 H       
  50 H50           -0.8944    -2.6306     3.9638 H       
  51 H51           -0.3467    -7.6735     3.5327 H       
  52 H52           -2.0278    -7.1100     3.2521 H       
  53 H53            1.6760    -6.1362     5.2692 H       
  54 H54            4.0401    -5.8868     4.6198 H       
  55 H55            4.6160    -5.0825     2.3656 H       
  56 H56            2.8438    -4.5275     0.7601 H       
  57 H57           -2.9222     3.7527    -1.1462 H       
  58 H58           -2.9627     6.2015    -0.9518 H       
  59 H59            0.4564     6.0420     1.6377 H       
  60 H60            0.4816     3.5929     1.4436 H       
@<TRIPOS>BOND
   1    1    2 1
   2    1    8 2
   3    1    9 am
   4    2    3 ar
   5    2    7 ar
   6    3    4 ar
   7    3   40 1
   8    4    5 ar
   9    4   41 1
  10    5    6 ar
  11    5   10 1
  12    6    7 ar
  13    6   42 1
  14    7   43 1
  15    9   32 1
  16    9   44 1
  17   10   23 1
  18   10   45 1
  19   10   46 1
  20   11   12 1
  21   11   15 1
  22   12   13 1
  23   12   47 1
  24   12   48 1
  25   13   14 1
  26   14   15 ar
  27   14   16 ar
  28   15   19 ar
  29   16   17 ar
  30   16   49 1
  31   17   18 ar
  32   17   20 1
  33   18   19 ar
  34   18   21 1
  35   19   50 1
  36   20   22 1
  37   21   22 1
  38   21   24 1
  39   21   25 1
  40   22   51 1
  41   22   52 1
  42   23   24 am
  43   23   30 1
  44   24   31 2
  45   25   26 ar
  46   25   30 ar
  47   26   27 ar
  48   26   53 1
  49   27   28 ar
  50   27   54 1
  51   28   29 ar
  52   28   55 1
  53   29   30 ar
  54   29   56 1
  55   32   33 ar
  56   32   37 ar
  57   33   34 ar
  58   33   57 1
  59   34   35 ar
  60   34   58 1
  61   35   36 ar
  62   35   38 1
  63   36   37 ar
  64   36   59 1
  65   37   60 1
  66   38   39 3

#	End of record

