#	Name: ASD03330561
#	Creating user name:	WinNT
#	Creation time:	15. 06. 2019 20:37

#	Modifying user name:	WinNT
#	Modification time:	15. 06. 2019 20:37

#	Program:	/corina/corina34_cracker 3.40 0067  02.08.2006

@<TRIPOS>MOLECULE
ASD03330561
  57   59    0    0    0
SMALL
NO_CHARGES


@<TRIPOS>ATOM
   1 C1             0.1610     1.2207     0.7158 C.2     
   2 N2             0.2495    -0.1102     0.9860 N.pl3   
   3 C3             1.4330     1.6994     0.6368 C.2     
   4 N4             2.2782     0.6644     0.8400 N.2     
   5 C5             1.5767    -0.4288     1.0451 C.2     
   6 C6             2.1285    -1.7699     1.2969 C.2     
   7 C7             1.8196     3.0970     0.3755 C.2     
   8 O8             0.9627     3.9436     0.2071 O.2     
   9 C9             3.5069     4.8268     0.0632 C.3     
  10 N10            3.1226     3.4372     0.3230 N.am    
  11 C11            3.5325     5.0752    -1.4463 C.3     
  12 C12            2.1168     4.9371    -2.0099 C.3     
  13 C13            4.0559     6.4861    -1.7223 C.3     
  14 C14            4.4503     4.0506    -2.1163 C.3     
  15 C15            4.8758     5.0853     0.6380 C.2     
  16 N16            5.3591     6.3424     0.6885 N.am    
  17 O17            5.5425     4.1621     1.0552 O.2     
  18 C18            6.7205     6.5850     1.1723 C.3     
  19 C19           -0.8864    -1.0138     1.1876 C.3     
  20 C20           -1.9134    -0.7857     0.0740 C.3     
  21 C21           -2.8737     0.3282     0.4783 C.3     
  22 N22           -2.1935     1.3440     1.2840 N.3     
  23 C23           -1.1167     1.9962     0.5243 C.3     
  24 C24           -3.1489     2.3341     1.7988 C.3     
  25 C25            3.4086    -2.0357     1.6368 C.2     
  26 C26            3.6894    -3.3718     1.8210 C.2     
  27 C27            2.6553    -4.1996     1.6358 C.2     
  28 S28            1.2217    -3.2745     1.2092 S.3     
  29 H29            2.7846     5.4968     0.5295 H       
  30 H30            3.8060     2.7620     0.4573 H       
  31 H31            1.4629     5.6670    -1.5326 H       
  32 H32            2.1350     5.1140    -3.0853 H       
  33 H33            1.7439     3.9319    -1.8133 H       
  34 H34            5.0168     6.6208    -1.2256 H       
  35 H35            4.1796     6.6241    -2.7964 H       
  36 H36            3.3442     7.2186    -1.3414 H       
  37 H37            4.0773     3.0454    -1.9197 H       
  38 H38            4.4685     4.2275    -3.1917 H       
  39 H39            5.4588     4.1490    -1.7148 H       
  40 H40            4.8055     7.0866     0.4045 H       
  41 H41            6.8109     6.2267     2.1977 H       
  42 H42            7.4312     6.0549     0.5382 H       
  43 H43            6.9323     7.6537     1.1407 H       
  44 H44           -0.5400    -2.0469     1.1576 H       
  45 H45           -1.3465    -0.8107     2.1546 H       
  46 H46           -1.3966    -0.5036    -0.8434 H       
  47 H47           -2.4747    -1.7046    -0.0952 H       
  48 H48           -3.2776     0.7955    -0.4198 H       
  49 H49           -3.6926    -0.0984     1.0575 H       
  50 H50           -0.9817     3.0158     0.8854 H       
  51 H51           -1.3767     2.0146    -0.5340 H       
  52 H52           -3.8909     1.8337     2.4209 H       
  53 H53           -2.6173     3.0769     2.3937 H       
  54 H54           -3.6473     2.8264     0.9637 H       
  55 H55            4.1530    -1.2622     1.7545 H       
  56 H56            4.6726    -3.7250     2.0945 H       
  57 H57            2.6937    -5.2741     1.7374 H       
@<TRIPOS>BOND
   1    1    2 1
   2    1    3 2
   3    1   23 1
   4    2   19 1
   5    2    5 1
   6    3    4 1
   7    3    7 1
   8    4    5 2
   9    5    6 1
  10    6   25 2
  11    6   28 1
  12    7    8 2
  13    7   10 am
  14    9   10 1
  15    9   11 1
  16    9   15 1
  17    9   29 1
  18   10   30 1
  19   11   12 1
  20   11   13 1
  21   11   14 1
  22   12   31 1
  23   12   32 1
  24   12   33 1
  25   13   34 1
  26   13   35 1
  27   13   36 1
  28   14   37 1
  29   14   38 1
  30   14   39 1
  31   15   16 am
  32   15   17 2
  33   16   18 1
  34   16   40 1
  35   18   41 1
  36   18   42 1
  37   18   43 1
  38   19   20 1
  39   19   44 1
  40   19   45 1
  41   20   21 1
  42   20   46 1
  43   20   47 1
  44   21   22 1
  45   21   48 1
  46   21   49 1
  47   22   23 1
  48   22   24 1
  49   23   50 1
  50   23   51 1
  51   24   52 1
  52   24   53 1
  53   24   54 1
  54   25   26 1
  55   25   55 1
  56   26   27 2
  57   26   56 1
  58   27   28 1
  59   27   57 1

#	End of record

