#	Name: ASD04880411
#	Creating user name:	WinNT
#	Creation time:	15. 06. 2019 20:53

#	Modifying user name:	WinNT
#	Modification time:	15. 06. 2019 20:53

#	Program:	/corina/corina34_cracker 3.40 0067  02.08.2006

@<TRIPOS>MOLECULE
ASD04880411
  50   52    0    0    0
SMALL
NO_CHARGES


@<TRIPOS>ATOM
   1 C1            -0.0141     1.4085    -0.2524 C.ar    
   2 C2             0.0080     0.0159    -0.2860 C.ar    
   3 C3            -1.1790    -0.7013    -0.2492 C.ar    
   4 C4            -2.3866    -0.0392    -0.1796 C.ar    
   5 C5            -2.4164     1.3573    -0.1455 C.ar    
   6 C6            -1.2204     2.0792    -0.1769 C.ar    
   7 O7             1.1516     2.1080    -0.2883 O.3     
   8 O8             1.1956    -0.6418    -0.3555 O.3     
   9 C9             1.1456    -2.0696    -0.3866 C.3     
  10 C10            1.0544     3.5332    -0.2506 C.3     
  11 C11           -3.7062     2.0673    -0.0712 C.2     
  12 C12           -5.0650     1.4056    -0.0258 C.3     
  13 N13           -3.8492     3.3472    -0.0292 N.2     
  14 N14           -5.1751     3.7699     0.0395 N.am    
  15 C15           -6.0516     2.5879     0.0470 C.3     
  16 C16           -6.9754     2.5948    -1.1726 C.3     
  17 C17           -6.8660     2.5298     1.3409 C.3     
  18 C18           -5.5874     5.0519     0.0930 C.2     
  19 O19           -6.7746     5.3112     0.0472 O.2     
  20 C20           -4.5968     6.1426     0.2074 C.ar    
  21 C21           -5.0067     7.4740     0.1195 C.ar    
  22 C22           -4.0766     8.4874     0.2270 C.ar    
  23 C23           -2.7403     8.1864     0.4212 C.ar    
  24 C24           -2.3272     6.8686     0.5092 C.ar    
  25 C25           -3.2475     5.8460     0.4096 C.ar    
  26 C26           -4.5172     9.9255     0.1323 C.3     
  27 F27           -4.8370    10.4002     1.4089 F       
  28 F28           -3.4811    10.6962    -0.4058 F       
  29 F29           -5.6426    10.0149    -0.6939 F       
  30 H30           -1.1572    -1.7808    -0.2754 H       
  31 H31           -3.3092    -0.6000    -0.1517 H       
  32 H32           -1.2388     3.1587    -0.1508 H       
  33 H33            2.1589    -2.4675    -0.4421 H       
  34 H34            0.6604    -2.4360     0.5181 H       
  35 H35            0.5794    -2.3944    -1.2596 H       
  36 H36            2.0539     3.9666    -0.2853 H       
  37 H37            0.4777     3.8809    -1.1078 H       
  38 H38            0.5574     3.8393     0.6699 H       
  39 H39           -5.2356     0.8204    -0.9294 H       
  40 H40           -5.1550     0.7774     0.8604 H       
  41 H41           -6.3757     2.6101    -2.0826 H       
  42 H42           -7.5975     1.6998    -1.1623 H       
  43 H43           -7.6113     3.4796    -1.1416 H       
  44 H44           -7.5002     3.4135     1.4110 H       
  45 H45           -7.4886     1.6351     1.3384 H       
  46 H46           -6.1895     2.4993     2.1950 H       
  47 H47           -6.0494     7.7104    -0.0328 H       
  48 H48           -2.0163     8.9834     0.5040 H       
  49 H49           -1.2825     6.6404     0.6605 H       
  50 H50           -2.9238     4.8180     0.4788 H       
@<TRIPOS>BOND
   1    1    2 ar
   2    1    7 1
   3    1    6 ar
   4    2    3 ar
   5    2    8 1
   6    3    4 ar
   7    3   30 1
   8    4    5 ar
   9    4   31 1
  10    5    6 ar
  11    5   11 1
  12    6   32 1
  13    7   10 1
  14    8    9 1
  15    9   33 1
  16    9   34 1
  17    9   35 1
  18   10   36 1
  19   10   37 1
  20   10   38 1
  21   11   12 1
  22   11   13 2
  23   12   15 1
  24   12   39 1
  25   12   40 1
  26   13   14 1
  27   14   15 1
  28   14   18 am
  29   15   16 1
  30   15   17 1
  31   16   41 1
  32   16   42 1
  33   16   43 1
  34   17   44 1
  35   17   45 1
  36   17   46 1
  37   18   19 2
  38   18   20 1
  39   20   21 ar
  40   20   25 ar
  41   21   22 ar
  42   21   47 1
  43   22   23 ar
  44   22   26 1
  45   23   24 ar
  46   23   48 1
  47   24   25 ar
  48   24   49 1
  49   25   50 1
  50   26   27 1
  51   26   28 1
  52   26   29 1

#	End of record

