#	Name: ASD08178012
#	Creating user name:	WinNT
#	Creation time:	15. 06. 2019 21:18

#	Modifying user name:	WinNT
#	Modification time:	15. 06. 2019 21:18

#	Program:	/corina/corina34_cracker 3.40 0067  02.08.2006

@<TRIPOS>MOLECULE
ASD08178012
  89   92    0    0    0
SMALL
NO_CHARGES


@<TRIPOS>ATOM
   1 N1             1.7252     3.1370     1.7031 N.2     
   2 N2             1.5296     1.8959     1.5792 N.2     
   3 C3             2.9495     3.5647     1.6307 C.2     
   4 S4             3.9849     2.2246     1.3727 S.3     
   5 C5             2.5785     1.1600     1.3897 C.2     
   6 N6             3.3528     4.8909     1.7433 N.am    
   7 C7             4.6593     5.2082     1.6494 C.2     
   8 O8             5.0032     6.3712     1.6605 O.2     
   9 C9             5.6929     4.1179     1.5308 C.3     
  10 C10            2.5945    -0.3367     1.2151 C.3     
  11 C11            2.4579    -0.6785    -0.2699 C.3     
  12 S12            2.4772    -2.4802    -0.4801 S.3     
  13 C13            2.3075    -2.6836    -2.2746 C.3     
  14 C14            2.3067    -4.1738    -2.6212 C.3     
  15 C15            2.1658    -4.3427    -4.1120 C.2     
  16 N16            3.1351    -4.4059    -4.9687 N.2     
  17 S17            0.6512    -4.4976    -5.0030 S.3     
  18 C18            1.5436    -4.6239    -6.4598 C.2     
  19 N19            2.8099    -4.5500    -6.1801 N.2     
  20 N20            1.0022    -4.7838    -7.7308 N.am    
  21 C21           -0.3343    -4.8517    -7.8903 C.2     
  22 O22           -0.8102    -4.9031    -9.0047 O.2     
  23 C23           -1.2375    -4.8636    -6.6840 C.3     
  24 C24            1.8848    -4.8785    -8.8963 C.3     
  25 O25            1.8255    -3.6389    -9.6503 O.3     
  26 C26            2.5486    -2.6079    -9.1857 C.2     
  27 C27            2.6131    -1.3205    -9.9663 C.3     
  28 O28            3.1479    -2.7121    -8.1417 O.2     
  29 C29            3.4967    -0.3169    -9.2226 C.3     
  30 C30            3.5622     0.9903   -10.0150 C.3     
  31 C31            2.3575     5.9430     1.9641 C.3     
  32 O32            2.1490     6.6787     0.7297 O.3     
  33 C33            1.3576     6.1093    -0.1928 C.2     
  34 C34            1.1908     6.7546    -1.5444 C.3     
  35 O35            0.7788     5.0793     0.0604 O.2     
  36 C36            0.2444     5.9097    -2.3997 C.3     
  37 C37            0.0751     6.5649    -3.7719 C.3     
  38 C38           -2.6739    -4.9437    -7.1327 C.ar    
  39 C39           -3.2757    -6.1758    -7.3076 C.ar    
  40 C40           -4.5933    -6.2493    -7.7192 C.ar    
  41 C41           -5.3093    -5.0906    -7.9554 C.ar    
  42 C42           -4.7077    -3.8585    -7.7797 C.ar    
  43 C43           -3.3914    -3.7850    -7.3639 C.ar    
  44 C44            7.0652     4.7342     1.4415 C.ar    
  45 C45            7.7899     4.9774     2.5933 C.ar    
  46 C46            9.0487     5.5427     2.5114 C.ar    
  47 C47            9.5830     5.8645     1.2778 C.ar    
  48 C48            8.8586     5.6205     0.1259 C.ar    
  49 C49            7.6016     5.0511     0.2075 C.ar    
  50 H50            5.6412     3.4714     2.4068 H       
  51 H51            5.4995     3.5301     0.6334 H       
  52 H52            3.5346    -0.7368     1.5951 H       
  53 H53            1.7633    -0.7758     1.7669 H       
  54 H54            1.5179    -0.2784    -0.6499 H       
  55 H55            3.2891    -0.2394    -0.8217 H       
  56 H56            1.3713    -2.2333    -2.6044 H       
  57 H57            3.1425    -2.1943    -2.7763 H       
  58 H58            3.2430    -4.6240    -2.2914 H       
  59 H59            1.4718    -4.6630    -2.1195 H       
  60 H60           -1.0022    -5.7276    -6.0625 H       
  61 H61           -1.0870    -3.9502    -6.1084 H       
  62 H62            2.9081    -5.0530    -8.5640 H       
  63 H63            1.5625    -5.7048    -9.5299 H       
  64 H64            3.0344    -1.5143   -10.9527 H       
  65 H65            1.6090    -0.9103   -10.0742 H       
  66 H66            3.0754    -0.1230    -8.2361 H       
  67 H67            4.5008    -0.7270    -9.1146 H       
  68 H68            4.1916     1.7052    -9.4852 H       
  69 H69            3.9834     0.7964   -11.0015 H       
  70 H70            2.5580     1.4004   -10.1230 H       
  71 H71            1.4172     5.4927     2.2819 H       
  72 H72            2.7139     6.6239     2.7371 H       
  73 H73            0.7742     7.7542    -1.4209 H       
  74 H74            2.1611     6.8236    -2.0363 H       
  75 H75            0.6610     4.9101    -2.5232 H       
  76 H76           -0.7259     5.8407    -1.9078 H       
  77 H77           -0.5991     5.9630    -4.3812 H       
  78 H78           -0.3415     7.5645    -3.6483 H       
  79 H79            1.0454     6.6339    -4.2637 H       
  80 H80           -2.7164    -7.0810    -7.1230 H       
  81 H81           -5.0633    -7.2119    -7.8565 H       
  82 H82           -6.3384    -5.1480    -8.2777 H       
  83 H83           -5.2670    -2.9532    -7.9646 H       
  84 H84           -2.9226    -2.8223    -7.2229 H       
  85 H85            7.3725     4.7260     3.5571 H       
  86 H86            9.6146     5.7333     3.4113 H       
  87 H87           10.5661     6.3068     1.2138 H       
  88 H88            9.2759     5.8722    -0.8379 H       
  89 H89            7.0372     4.8571    -0.6926 H       
@<TRIPOS>BOND
   1    1    2 1
   2    1    3 2
   3    2    5 2
   4    3    4 1
   5    3    6 1
   6    4    5 1
   7    5   10 1
   8    6    7 am
   9    6   31 1
  10    7    8 2
  11    7    9 1
  12    9   44 1
  13    9   50 1
  14    9   51 1
  15   10   11 1
  16   10   52 1
  17   10   53 1
  18   11   12 1
  19   11   54 1
  20   11   55 1
  21   12   13 1
  22   13   14 1
  23   13   56 1
  24   13   57 1
  25   14   15 1
  26   14   58 1
  27   14   59 1
  28   15   16 2
  29   15   17 1
  30   16   19 1
  31   17   18 1
  32   18   19 2
  33   18   20 1
  34   20   21 am
  35   20   24 1
  36   21   22 2
  37   21   23 1
  38   23   38 1
  39   23   60 1
  40   23   61 1
  41   24   25 1
  42   24   62 1
  43   24   63 1
  44   25   26 1
  45   26   27 1
  46   26   28 2
  47   27   29 1
  48   27   64 1
  49   27   65 1
  50   29   30 1
  51   29   66 1
  52   29   67 1
  53   30   68 1
  54   30   69 1
  55   30   70 1
  56   31   32 1
  57   31   71 1
  58   31   72 1
  59   32   33 1
  60   33   34 1
  61   33   35 2
  62   34   36 1
  63   34   73 1
  64   34   74 1
  65   36   37 1
  66   36   75 1
  67   36   76 1
  68   37   77 1
  69   37   78 1
  70   37   79 1
  71   38   39 ar
  72   38   43 ar
  73   39   40 ar
  74   39   80 1
  75   40   41 ar
  76   40   81 1
  77   41   42 ar
  78   41   82 1
  79   42   43 ar
  80   42   83 1
  81   43   84 1
  82   44   45 ar
  83   44   49 ar
  84   45   46 ar
  85   45   85 1
  86   46   47 ar
  87   46   86 1
  88   47   48 ar
  89   47   87 1
  90   48   49 ar
  91   48   88 1
  92   49   89 1

#	End of record

