#	Name: ASD01140496
#	Creating user name:	WinNT
#	Creation time:	15. 06. 2019 19:01

#	Modifying user name:	WinNT
#	Modification time:	15. 06. 2019 19:01

#	Program:	/corina/corina34_cracker 3.40 0067  02.08.2006

@<TRIPOS>MOLECULE
ASD01140496
 121  123    0    0    0
SMALL
NO_CHARGES


@<TRIPOS>ATOM
   1 O1            -0.5951     5.1351    -0.0230 O.3     
   2 C2            -1.5202     4.0792    -0.2902 C.3     
   3 C3            -0.9003     2.7423     0.1245 C.3     
   4 C4             0.4169     2.5428    -0.6316 C.3     
   5 C5             1.3434     3.7278    -0.3425 C.3     
   6 C6             0.6368     5.0267    -0.7391 C.3     
   7 N7             1.0566     1.2983    -0.1844 N.3     
   8 O8             1.4731     6.1407    -0.4203 O.3     
   9 C9            -2.8060     4.3140     0.5051 C.3     
  10 C10            1.3892     7.2229    -1.3619 C.3     
  11 C11            2.7059     7.8958    -1.3938 C.3     
  12 C12           -0.3802     8.8148     1.3130 C.3     
  13 C13           -0.5612     7.7179     0.2323 C.3     
  14 C14            0.2254     8.0947    -1.0185 C.3     
  15 C15           -0.5096     8.1841     2.6772 C.2     
  16 C16            0.5930     8.1870     3.6745 C.3     
  17 C17            1.7485     7.2542     3.1141 C.3     
  18 C18            4.0759     6.0460     0.5503 C.2     
  19 O19            4.2777     6.7228     1.6691 O.3     
  20 C20            4.0752     6.3828     3.0056 C.3     
  21 C21            3.1174     7.3834     3.6747 C.3     
  22 C22            3.8722     6.9437    -1.8219 C.3     
  23 C23            4.7439     6.5396    -0.6979 C.3     
  24 C24            3.1070     8.7884    -0.2974 C.3     
  25 O25            3.2993     5.8265    -2.4688 O.3     
  26 C26            3.5704     4.9453     3.3111 C.3     
  27 O27            3.1500     7.1520     5.0821 O.3     
  28 C28            0.9953     9.6572     3.9341 C.3     
  29 C29           -1.4880     9.8084     1.1563 C.3     
  30 C30            5.8572     7.4819    -0.4226 C.3     
  31 C31            4.1437     5.2298    -3.4552 C.3     
  32 C32            3.5236     3.9127    -3.9289 C.3     
  33 C33            4.4032     3.3096    -5.0284 C.3     
  34 C34            4.5487     4.3257    -6.1654 C.3     
  35 C35            5.1292     5.6268    -5.6053 C.3     
  36 O36            4.2794     6.1178    -4.5666 O.3     
  37 O37            5.6924     3.0019    -4.4943 O.3     
  38 O38            3.2670     4.5839    -6.7420 O.3     
  39 C39            6.5254     5.3605    -5.0391 C.3     
  40 C40            3.7519     2.0319    -5.5616 C.3     
  41 C41            5.6661     2.0653    -3.4154 C.3     
  42 O42            3.3623     5.1017     0.5505 O.2     
  43 C43            3.7565     8.7984     3.3927 C.3     
  44 O44            1.7451     7.3296     1.6722 O.3     
  45 O45           -1.5065     7.6318     2.9350 O.2     
  46 O46            0.5054     9.4823    -1.1704 O.3     
  47 C47            0.7080     9.8895    -2.5251 C.3     
  48 C48           -0.8069     7.8062    -2.2262 C.3     
  49 C49            1.2074     1.2794     1.2767 C.3     
  50 C50            0.3076     0.1240    -0.6515 C.3     
  51 O51            2.5472     3.5886    -1.0998 O.3     
  52 C52            4.6245     3.9294     2.8666 C.3     
  53 H53           -1.7502     4.0584    -1.3555 H       
  54 H54           -0.7073     2.7474     1.1972 H       
  55 H55           -1.5866     1.9313    -0.1192 H       
  56 H56            0.2180     2.4864    -1.7019 H       
  57 H57            1.5817     3.7528     0.7208 H       
  58 H58            0.4350     5.0182    -1.8103 H       
  59 H59           -3.2467     5.2664     0.2105 H       
  60 H60           -3.5115     3.5086     0.3012 H       
  61 H61           -2.5757     4.3342     1.5703 H       
  62 H62            1.1650     6.7319    -2.2951 H       
  63 H63            2.6104     8.5375    -2.3375 H       
  64 H64            0.5922     9.2396     1.2059 H       
  65 H65           -0.2746     6.7359     0.5693 H       
  66 H66           -1.6288     7.6539    -0.0406 H       
  67 H67            0.2310     7.7190     4.6327 H       
  68 H68            1.3860     6.2454     3.2976 H       
  69 H69            4.9996     6.4269     3.5495 H       
  70 H70            4.4829     7.4740    -2.5416 H       
  71 H71            5.3198     5.5413    -1.1164 H       
  72 H72            3.2624     8.2034     0.6091 H       
  73 H73            4.0329     9.2981    -0.5640 H       
  74 H74            2.3233     9.5259    -0.1241 H       
  75 H75            3.3947     4.8418     4.3818 H       
  76 H76            2.6409     4.7643     2.7712 H       
  77 H77            4.0309     7.2300     5.4732 H       
  78 H78            0.1081    10.2372     4.1883 H       
  79 H79            1.7056     9.6992     4.7597 H       
  80 H80            1.4556    10.0717     3.0372 H       
  81 H81           -2.4417     9.3258     1.3700 H       
  82 H82           -1.3355    10.6350     1.8502 H       
  83 H83           -1.4937    10.1880     0.1346 H       
  84 H84            5.4543     8.4159    -0.0308 H       
  85 H85            6.5329     7.0417     0.3108 H       
  86 H86            6.4022     7.6801    -1.3456 H       
  87 H87            5.1254     5.0348    -3.0235 H       
  88 H88            3.4599     3.2180    -3.0913 H       
  89 H89            2.5252     4.1013    -4.3236 H       
  90 H90            5.2182     3.9264    -6.9273 H       
  91 H91            5.1951     6.3680    -6.4018 H       
  92 H92            3.2842     5.2201    -7.4701 H       
  93 H93            7.1150     4.8084    -5.7709 H       
  94 H94            7.0152     6.3090    -4.8189 H       
  95 H95            6.4407     4.7743    -4.1240 H       
  96 H96            2.7700     2.2684    -5.9715 H       
  97 H97            4.3787     1.6038    -6.3438 H       
  98 H98            3.6430     1.3133    -4.7493 H       
  99 H99            5.2281     1.1280    -3.7586 H       
 100 H100           6.6828     1.8848    -3.0661 H       
 101 H101           5.0675     2.4685    -2.5986 H       
 102 H102           3.2285     9.5572     3.9703 H       
 103 H103           4.8072     8.7868     3.6826 H       
 104 H104           3.6753     9.0286     2.3304 H       
 105 H105           2.3653     6.7229     1.2452 H       
 106 H106           1.3562     9.1714    -3.0273 H       
 107 H107          -0.2523     9.9335    -3.0388 H       
 108 H108           1.1748    10.8744    -2.5425 H       
 109 H109          -1.0941     6.7548    -2.2153 H       
 110 H110          -1.6944     8.4266    -2.1015 H       
 111 H111          -0.3290     8.0425    -3.1769 H       
 112 H112           0.2257     1.3554     1.7443 H       
 113 H113           1.6835     0.3473     1.5808 H       
 114 H114           1.8248     2.1216     1.5891 H       
 115 H115           0.3366     0.0842    -1.7404 H       
 116 H116           0.7580    -0.7804    -0.2427 H       
 117 H117          -0.7276     0.1971    -0.3181 H       
 118 H118           3.0868     4.3904    -1.1315 H       
 119 H119           4.3099     2.9277     3.1594 H       
 120 H120           4.7370     3.9728     1.7833 H       
 121 H121           5.5777     4.1639     3.3406 H       
@<TRIPOS>BOND
   1    1    2 1
   2    1    6 1
   3    2    3 1
   4    2    9 1
   5    2   53 1
   6    3    4 1
   7    3   54 1
   8    3   55 1
   9    4    7 1
  10    4    5 1
  11    4   56 1
  12    5    6 1
  13    5   51 1
  14    5   57 1
  15    6    8 1
  16    6   58 1
  17    7   49 1
  18    7   50 1
  19    8   10 1
  20    9   59 1
  21    9   60 1
  22    9   61 1
  23   10   11 1
  24   10   14 1
  25   10   62 1
  26   11   22 1
  27   11   24 1
  28   11   63 1
  29   12   13 1
  30   12   15 1
  31   12   29 1
  32   12   64 1
  33   13   14 1
  34   13   65 1
  35   13   66 1
  36   14   46 1
  37   14   48 1
  38   15   45 2
  39   15   16 1
  40   16   28 1
  41   16   17 1
  42   16   67 1
  43   17   21 1
  44   17   44 1
  45   17   68 1
  46   18   19 1
  47   18   42 2
  48   18   23 1
  49   19   20 1
  50   20   21 1
  51   20   26 1
  52   20   69 1
  53   21   27 1
  54   21   43 1
  55   22   23 1
  56   22   25 1
  57   22   70 1
  58   23   30 1
  59   23   71 1
  60   24   72 1
  61   24   73 1
  62   24   74 1
  63   25   31 1
  64   26   52 1
  65   26   75 1
  66   26   76 1
  67   27   77 1
  68   28   78 1
  69   28   79 1
  70   28   80 1
  71   29   81 1
  72   29   82 1
  73   29   83 1
  74   30   84 1
  75   30   85 1
  76   30   86 1
  77   31   32 1
  78   31   36 1
  79   31   87 1
  80   32   33 1
  81   32   88 1
  82   32   89 1
  83   33   37 1
  84   33   40 1
  85   33   34 1
  86   34   35 1
  87   34   38 1
  88   34   90 1
  89   35   36 1
  90   35   39 1
  91   35   91 1
  92   37   41 1
  93   38   92 1
  94   39   93 1
  95   39   94 1
  96   39   95 1
  97   40   96 1
  98   40   97 1
  99   40   98 1
 100   41   99 1
 101   41  100 1
 102   41  101 1
 103   43  102 1
 104   43  103 1
 105   43  104 1
 106   44  105 1
 107   46   47 1
 108   47  106 1
 109   47  107 1
 110   47  108 1
 111   48  109 1
 112   48  110 1
 113   48  111 1
 114   49  112 1
 115   49  113 1
 116   49  114 1
 117   50  115 1
 118   50  116 1
 119   50  117 1
 120   51  118 1
 121   52  119 1
 122   52  120 1
 123   52  121 1

#	End of record

