#	Name: ASD08150689
#	Creating user name:	WinNT
#	Creation time:	15. 06. 2019 21:16

#	Modifying user name:	WinNT
#	Modification time:	15. 06. 2019 21:16

#	Program:	/corina/corina34_cracker 3.40 0067  02.08.2006

@<TRIPOS>MOLECULE
ASD08150689
  53   55    0    0    0
SMALL
NO_CHARGES


@<TRIPOS>ATOM
   1 C1             0.1103     1.1500    -0.7645 C.ar    
   2 C2             0.0016    -0.0035    -0.0057 C.ar    
   3 C3             1.0900    -0.4490     0.7428 C.ar    
   4 C4             2.2806     0.2612     0.7283 C.ar    
   5 C5             2.3924     1.4113    -0.0264 C.ar    
   6 C6             1.3080     1.8617    -0.7773 C.ar    
   7 N7            -1.2012    -0.7217     0.0101 N.am    
   8 C8            -2.3744    -0.0687     0.1270 C.2     
   9 N9            -3.5353    -0.7470     0.0337 N.am    
  10 S10           -2.3901     1.6223     0.3940 S.2     
  11 C11           -4.7086    -0.0940     0.1506 C.2     
  12 C12           -5.9814    -0.8377     0.0484 C.ar    
  13 O13           -4.7197     1.1063     0.3401 O.2     
  14 C14           -7.1985    -0.1644     0.1690 C.ar    
  15 C15           -8.3831    -0.8647     0.0721 C.ar    
  16 C16           -8.3668    -2.2313    -0.1442 C.ar    
  17 C17           -7.1641    -2.9048    -0.2642 C.ar    
  18 C18           -5.9723    -2.2158    -0.1750 C.ar    
  19 C19           -9.6978    -0.1398     0.2025 C.3     
  20 C20           -7.1562    -4.3934    -0.4987 C.3     
  21 O21            0.9837    -1.5810     1.4882 O.3     
  22 C22          -10.1596     0.3313    -1.1780 C.3     
  23 C23           -7.1701    -4.6729    -2.0029 C.3     
  24 C24            1.4287     3.0979    -1.5887 C.ar    
  25 C25            2.6257     3.8113    -1.6024 C.ar    
  26 C26            2.7324     4.9606    -2.3590 C.ar    
  27 C27            1.6541     5.4046    -3.1029 C.ar    
  28 C28            0.4634     4.7007    -3.0927 C.ar    
  29 C29            0.3474     3.5467    -2.3446 C.ar    
  30 H30           -0.7302     1.4946    -1.3486 H       
  31 H31            3.1224    -0.0862     1.3090 H       
  32 H32            3.3209     1.9627    -0.0351 H       
  33 H33           -1.1896    -1.6888    -0.0631 H       
  34 H34           -3.5265    -1.7051    -0.1175 H       
  35 H35           -7.2126     0.9021     0.3382 H       
  36 H36           -9.2971    -2.7747    -0.2193 H       
  37 H37           -5.0343    -2.7427    -0.2689 H       
  38 H38          -10.4437    -0.8131     0.6249 H       
  39 H39           -9.5739     0.7223     0.8579 H       
  40 H40           -6.2585    -4.8260    -0.0570 H       
  41 H41           -8.0383    -4.8384    -0.0383 H       
  42 H42            1.2301    -2.3878     1.0154 H       
  43 H43          -10.2835    -0.5308    -1.8334 H       
  44 H44          -11.1105     0.8556    -1.0837 H       
  45 H45           -9.4138     1.0046    -1.6004 H       
  46 H46           -7.1644    -5.7496    -2.1725 H       
  47 H47           -8.0679    -4.2403    -2.4445 H       
  48 H48           -6.2880    -4.2279    -2.4633 H       
  49 H49            3.4682     3.4657    -1.0217 H       
  50 H50            3.6595     5.5145    -2.3701 H       
  51 H51            1.7420     6.3045    -3.6936 H       
  52 H52           -0.3756     5.0522    -3.6748 H       
  53 H53           -0.5811     2.9952    -2.3411 H       
@<TRIPOS>BOND
   1    1    2 ar
   2    1    6 ar
   3    1   30 1
   4    2    3 ar
   5    2    7 1
   6    3    4 ar
   7    3   21 1
   8    4    5 ar
   9    4   31 1
  10    5    6 ar
  11    5   32 1
  12    6   24 1
  13    7    8 am
  14    7   33 1
  15    8    9 am
  16    8   10 2
  17    9   11 am
  18    9   34 1
  19   11   12 1
  20   11   13 2
  21   12   14 ar
  22   12   18 ar
  23   14   15 ar
  24   14   35 1
  25   15   16 ar
  26   15   19 1
  27   16   17 ar
  28   16   36 1
  29   17   18 ar
  30   17   20 1
  31   18   37 1
  32   19   22 1
  33   19   38 1
  34   19   39 1
  35   20   23 1
  36   20   40 1
  37   20   41 1
  38   21   42 1
  39   22   43 1
  40   22   44 1
  41   22   45 1
  42   23   46 1
  43   23   47 1
  44   23   48 1
  45   24   25 ar
  46   24   29 ar
  47   25   26 ar
  48   25   49 1
  49   26   27 ar
  50   26   50 1
  51   27   28 ar
  52   27   51 1
  53   28   29 ar
  54   28   52 1
  55   29   53 1

#	End of record

