#	Name: ASD02690089
#	Creating user name:	WinNT
#	Creation time:	15. 06. 2019 20:26

#	Modifying user name:	WinNT
#	Modification time:	15. 06. 2019 20:26

#	Program:	/corina/corina34_cracker 3.40 0067  02.08.2006

@<TRIPOS>MOLECULE
ASD02690089
  57   60    0    0    0
SMALL
NO_CHARGES


@<TRIPOS>ATOM
   1 C1            -0.0037     1.4595    -0.1178 C.3     
   2 N2             0.0021    -0.0041     0.0020 N.3     
   3 C3            -1.3562    -0.5483    -0.1275 C.3     
   4 C4            -1.9362    -0.1656    -1.4876 C.3     
   5 C5             1.4362     1.9778    -0.1242 C.3     
   6 C6             2.1311     1.5561     1.1734 C.3     
   7 C7             2.0807     0.0308     1.2976 C.3     
   8 C8            -3.2305    -0.8951    -1.7359 C.ar    
   9 C9             3.5672     2.0121     1.1468 C.2     
  10 C10            4.2890     2.2388     2.4055 C.ar    
  11 C11            5.6236     2.6626     2.3836 C.ar    
  12 C12            0.6221    -0.4312     1.2628 C.3     
  13 C13           -1.3107    -2.0780    -0.0343 C.3     
  14 C14           -2.7434    -2.5969     0.0707 C.3     
  15 C15           -3.5991    -2.0138    -1.0233 C.ar    
  16 C16           -4.8040    -2.6442    -1.3072 C.ar    
  17 C17           -5.6346    -2.1566    -2.2946 C.ar    
  18 C18           -5.2663    -1.0307    -3.0075 C.ar    
  19 O19            4.1269     2.1918     0.0858 O.2     
  20 C20           -4.0697    -0.4041    -2.7280 C.ar    
  21 O21           -0.6895    -2.6133    -1.2046 O.3     
  22 C22            3.6434     2.0376     3.6318 C.ar    
  23 C23            4.3217     2.2512     4.8041 C.ar    
  24 C24            5.6485     2.6674     4.7768 C.ar    
  25 C25            6.2929     2.8733     3.5616 C.ar    
  26 O26            6.3150     2.8777     5.9395 O.3     
  27 C27            7.6752     3.3043     5.8396 C.3     
  28 C28            8.2564     3.4882     7.2429 C.3     
  29 F29            8.3035     2.2508     7.8939 F       
  30 H30           -0.4970     1.7459    -1.0467 H       
  31 H31           -0.5413     1.8909     0.7266 H       
  32 H32           -1.9884    -0.1502     0.6663 H       
  33 H33           -2.1190     0.9087    -1.5109 H       
  34 H34           -1.2218    -0.4250    -2.2688 H       
  35 H35            1.9704     1.5576    -0.9763 H       
  36 H36            1.4311     3.0654    -0.1974 H       
  37 H37            1.6208     2.0087     2.0236 H       
  38 H38            2.6251    -0.4201     0.4679 H       
  39 H39            2.5362    -0.2728     2.2402 H       
  40 H40            6.1248     2.8228     1.4405 H       
  41 H41            0.0817     0.0091     2.1007 H       
  42 H42            0.5835    -1.5180     1.3366 H       
  43 H43           -0.7469    -2.3754     0.8499 H       
  44 H44           -2.7395    -3.6833    -0.0166 H       
  45 H45           -3.1573    -2.3161     1.0391 H       
  46 H46           -5.0925    -3.5235    -0.7506 H       
  47 H47           -6.5697    -2.6524    -2.5098 H       
  48 H48           -5.9134    -0.6429    -3.7804 H       
  49 H49           -3.7826     0.4752    -3.2856 H       
  50 H50           -0.6280    -3.5783    -1.2109 H       
  51 H51            2.6129     1.7152     3.6541 H       
  52 H52            3.8247     2.0964     5.7504 H       
  53 H53            7.3233     3.1962     3.5458 H       
  54 H54            8.2533     2.5523     5.3025 H       
  55 H55            7.7205     4.2507     5.3007 H       
  56 H56            9.2637     3.8979     7.1681 H       
  57 H57            7.6266     4.1735     7.8101 H       
@<TRIPOS>BOND
   1    1    2 1
   2    1    5 1
   3    1   30 1
   4    1   31 1
   5    2    3 1
   6    2   12 1
   7    3    4 1
   8    3   13 1
   9    3   32 1
  10    4    8 1
  11    4   33 1
  12    4   34 1
  13    5    6 1
  14    5   35 1
  15    5   36 1
  16    6    9 1
  17    6    7 1
  18    6   37 1
  19    7   12 1
  20    7   38 1
  21    7   39 1
  22    8   15 ar
  23    8   20 ar
  24    9   10 1
  25    9   19 2
  26   10   11 ar
  27   10   22 ar
  28   11   25 ar
  29   11   40 1
  30   12   41 1
  31   12   42 1
  32   13   14 1
  33   13   21 1
  34   13   43 1
  35   14   15 1
  36   14   44 1
  37   14   45 1
  38   15   16 ar
  39   16   17 ar
  40   16   46 1
  41   17   18 ar
  42   17   47 1
  43   18   20 ar
  44   18   48 1
  45   20   49 1
  46   21   50 1
  47   22   23 ar
  48   22   51 1
  49   23   24 ar
  50   23   52 1
  51   24   25 ar
  52   24   26 1
  53   25   53 1
  54   26   27 1
  55   27   28 1
  56   27   54 1
  57   27   55 1
  58   28   29 1
  59   28   56 1
  60   28   57 1

#	End of record

