#	Name: ASD01028167
#	Creating user name:	WinNT
#	Creation time:	15. 06. 2019 18:56

#	Modifying user name:	WinNT
#	Modification time:	15. 06. 2019 18:56

#	Program:	/corina/corina34_cracker 3.40 0067  02.08.2006

@<TRIPOS>MOLECULE
ASD01028167
  61   64    0    0    0
SMALL
NO_CHARGES


@<TRIPOS>ATOM
   1 C1            -1.1883     0.7118    -1.8512 C.ar    
   2 C2            -0.8310    -0.6009    -1.4973 C.ar    
   3 C3             0.5262    -0.9210    -1.3788 C.ar    
   4 C4             1.4593     0.0729    -1.6161 C.ar    
   5 C5             1.0302     1.3422    -1.9605 C.ar    
   6 N6            -0.2536     1.6243    -2.0672 N.ar    
   7 C7            -1.8667    -1.6213    -1.2551 C.2     
   8 O8            -3.0414    -1.3065    -1.2517 O.2     
   9 N9            -1.5119    -2.9032    -1.0373 N.am    
  10 N10           -2.5227     1.0503    -1.9801 N.pl3   
  11 C11           -2.9049     2.4436    -2.2225 C.3     
  12 C12           -4.4282     2.5443    -2.3242 C.3     
  13 C13           -4.9376     4.4569    -3.8648 C.ar    
  14 C14           -4.8213     3.9776    -2.5736 C.ar    
  15 C15           -5.0712     4.8320    -1.5108 C.ar    
  16 C16           -5.4305     6.1424    -1.7878 C.ar    
  17 C17           -5.5267     6.5502    -3.1046 C.ar    
  18 N18           -5.2811     5.7097    -4.0908 N.ar    
  19 C19           -2.4844    -3.8505    -0.7017 C.ar    
  20 C20           -2.3517    -5.1643    -1.1297 C.ar    
  21 C21           -3.3172    -6.1002    -0.7947 C.ar    
  22 C22           -4.4140    -5.7224    -0.0324 C.ar    
  23 C23           -4.5447    -4.4141     0.3924 C.ar    
  24 C24           -3.5814    -3.4793     0.0653 C.ar    
  25 C25           -5.7371    -4.0075     1.2194 C.3     
  26 F26           -6.5631    -5.1179     1.4242 F       
  27 F27           -5.3020    -3.5158     2.4548 F       
  28 F28           -6.4531    -3.0113     0.5470 F       
  29 O29           -3.1905    -7.3872    -1.2125 O.3     
  30 N30           -0.6375    -9.2653    -3.9373 N.3     
  31 C31           -0.4584    -9.6082    -2.5207 C.3     
  32 C32           -1.7204    -9.2336    -1.7403 C.3     
  33 C33           -1.9819    -7.7326    -1.8922 C.3     
  34 C34           -2.1165    -7.3939    -3.3794 C.3     
  35 C35           -0.8430    -7.8218    -4.1123 C.3     
  36 H36            0.8377    -1.9191    -1.1083 H       
  37 H37            2.5147    -0.1406    -1.5329 H       
  38 H38            1.7601     2.1165    -2.1450 H       
  39 H39           -0.5821    -3.1687    -1.1134 H       
  40 H40           -3.2058     0.3652    -1.9099 H       
  41 H41           -2.5539     3.0652    -1.3987 H       
  42 H42           -2.4550     2.7869    -3.1540 H       
  43 H43           -4.7792     1.9227    -3.1479 H       
  44 H44           -4.8780     2.2010    -1.3926 H       
  45 H45           -4.7403     3.7990    -4.6982 H       
  46 H46           -4.9884     4.4851    -0.4914 H       
  47 H47           -5.6328     6.8354    -0.9846 H       
  48 H48           -5.8060     7.5691    -3.3287 H       
  49 H49           -1.4979    -5.4564    -1.7230 H       
  50 H50           -5.1664    -6.4519     0.2287 H       
  51 H51           -3.6834    -2.4584     0.4027 H       
  52 H52            0.1427    -9.5890    -4.4891 H       
  53 H53           -0.2774   -10.6789    -2.4263 H       
  54 H54            0.3933    -9.0593    -2.1190 H       
  55 H55           -2.5701    -9.7925    -2.1324 H       
  56 H56           -1.5812    -9.4739    -0.6862 H       
  57 H57           -1.1504    -7.1728    -1.4640 H       
  58 H58           -2.9724    -7.9239    -3.7973 H       
  59 H59           -2.2603    -6.3198    -3.4965 H       
  60 H60            0.0105    -7.2813    -3.7032 H       
  61 H61           -0.9413    -7.5951    -5.1739 H       
@<TRIPOS>BOND
   1    1    2 ar
   2    1    6 ar
   3    1   10 1
   4    2    3 ar
   5    2    7 1
   6    3    4 ar
   7    3   36 1
   8    4    5 ar
   9    4   37 1
  10    5    6 ar
  11    5   38 1
  12    7    8 2
  13    7    9 am
  14    9   19 1
  15    9   39 1
  16   10   11 1
  17   10   40 1
  18   11   12 1
  19   11   41 1
  20   11   42 1
  21   12   14 1
  22   12   43 1
  23   12   44 1
  24   13   14 ar
  25   13   18 ar
  26   13   45 1
  27   14   15 ar
  28   15   16 ar
  29   15   46 1
  30   16   17 ar
  31   16   47 1
  32   17   18 ar
  33   17   48 1
  34   19   20 ar
  35   19   24 ar
  36   20   21 ar
  37   20   49 1
  38   21   22 ar
  39   21   29 1
  40   22   23 ar
  41   22   50 1
  42   23   24 ar
  43   23   25 1
  44   24   51 1
  45   25   26 1
  46   25   27 1
  47   25   28 1
  48   29   33 1
  49   30   31 1
  50   30   35 1
  51   30   52 1
  52   31   32 1
  53   31   53 1
  54   31   54 1
  55   32   33 1
  56   32   55 1
  57   32   56 1
  58   33   34 1
  59   33   57 1
  60   34   35 1
  61   34   58 1
  62   34   59 1
  63   35   60 1
  64   35   61 1

#	End of record

