#	Name: ASD08070167
#	Creating user name:	WinNT
#	Creation time:	15. 06. 2019 21:14

#	Modifying user name:	WinNT
#	Modification time:	15. 06. 2019 21:14

#	Program:	/corina/corina34_cracker 3.40 0067  02.08.2006

@<TRIPOS>MOLECULE
ASD08070167
  35   37    0    0    0
SMALL
NO_CHARGES


@<TRIPOS>ATOM
   1 C1            -0.0166     1.3694     0.0096 C.2     
   2 C2             0.0021    -0.0041     0.0020 C.2     
   3 N3            -2.3989    -0.4631     0.0221 N.am    
   4 C4            -1.1378    -0.9385     0.0075 C.2     
   5 C5            -2.7442    -2.0977     2.2699 C.ar    
   6 C6            -3.8240    -1.8108     1.4446 C.ar    
   7 C7            -3.5318    -1.3919     0.0275 C.3     
   8 C8            -2.9457    -2.4933     3.5759 C.ar    
   9 C9            -4.2328    -2.6074     4.0677 C.ar    
  10 C10           -5.3064    -2.3218     3.2501 C.ar    
  11 C11           -5.1054    -1.9191     1.9359 C.ar    
  12 C12           -6.3217    -1.6080     1.1037 C.3     
  13 C13           -5.9702    -1.6084    -0.3826 C.3     
  14 C14           -4.7482    -0.7062    -0.5912 C.3     
  15 O15           -0.9404    -2.1385    -0.0012 O.2     
  16 C16            1.4404    -0.3122    -0.0134 C.2     
  17 N17            2.0391     0.8419    -0.0129 N.2     
  18 O18            1.2592     1.7624    -0.0005 O.3     
  19 C19            2.0830    -1.6752    -0.0264 C.3     
  20 H20           -0.8897     2.0049     0.0173 H       
  21 H21           -2.5563     0.4940     0.0291 H       
  22 H22           -1.7387    -2.0147     1.8846 H       
  23 H23           -3.2775    -2.2725    -0.5624 H       
  24 H24           -2.1011    -2.7134     4.2119 H       
  25 H25           -4.3971    -2.9195     5.0886 H       
  26 H26           -6.3115    -2.4124     3.6347 H       
  27 H27           -7.0880    -2.3600     1.2920 H       
  28 H28           -6.7061    -0.6266     1.3819 H       
  29 H29           -5.7364    -2.6233    -0.7042 H       
  30 H30           -6.8122    -1.2250    -0.9590 H       
  31 H31           -4.9145     0.2552    -0.1052 H       
  32 H32           -4.5814    -0.5549    -1.6577 H       
  33 H33            2.2281    -1.9987    -1.0571 H       
  34 H34            3.0479    -1.6269     0.4784 H       
  35 H35            1.4379    -2.3860     0.4901 H       
@<TRIPOS>BOND
   1    1    2 2
   2    1   18 1
   3    1   20 1
   4    2   16 1
   5    2    4 1
   6    3    4 am
   7    3    7 1
   8    3   21 1
   9    4   15 2
  10    5    6 ar
  11    5    8 ar
  12    5   22 1
  13    6    7 1
  14    6   11 ar
  15    7   14 1
  16    7   23 1
  17    8    9 ar
  18    8   24 1
  19    9   10 ar
  20    9   25 1
  21   10   11 ar
  22   10   26 1
  23   11   12 1
  24   12   13 1
  25   12   27 1
  26   12   28 1
  27   13   14 1
  28   13   29 1
  29   13   30 1
  30   14   31 1
  31   14   32 1
  32   16   17 2
  33   16   19 1
  34   17   18 1
  35   19   33 1
  36   19   34 1
  37   19   35 1

#	End of record

