#	Name: ASD01880262
#	Creating user name:	WinNT
#	Creation time:	15. 06. 2019 19:40

#	Modifying user name:	WinNT
#	Modification time:	15. 06. 2019 19:40

#	Program:	/corina/corina34_cracker 3.40 0067  02.08.2006

@<TRIPOS>MOLECULE
ASD01880262
  46   49    0    0    0
SMALL
NO_CHARGES


@<TRIPOS>ATOM
   1 C1            -0.0169     1.3981     0.0097 C.2     
   2 C2             0.0021    -0.0041     0.0020 C.2     
   3 C3            -1.2220    -0.7047     0.0099 C.2     
   4 C4            -2.3969    -0.0476     0.0242 C.2     
   5 N5            -2.4615     1.3155     0.0321 N.pl3   
   6 C6            -1.3172     2.0715     0.0319 C.2     
   7 C7            -3.5156     2.1915     0.0460 C.2     
   8 C8            -2.9977     3.4380     0.0476 C.2     
   9 N9            -1.6638     3.3460     0.0400 N.2     
  10 C10           -4.9787     1.8306     0.0565 C.3     
  11 C11            1.2014     2.1506     0.0021 C.1     
  12 N12            2.1679     2.7475    -0.0039 N.1     
  13 C13            1.2860    -0.7369    -0.0146 C.ar    
  14 C14            1.6516    -1.5334     1.0727 C.ar    
  15 C15            2.8490    -2.2148     1.0534 C.ar    
  16 C16            3.6924    -2.1100    -0.0456 C.ar    
  17 C17            3.3324    -1.3184    -1.1290 C.ar    
  18 C18            2.1336    -0.6391    -1.1201 C.ar    
  19 O19            4.8720    -2.7828    -0.0606 O.3     
  20 C20            5.6909    -2.6305    -1.2217 C.3     
  21 C21            6.9490    -3.4442    -1.0594 C.ar    
  22 C22            6.9835    -4.7570    -1.4908 C.ar    
  23 C23            8.1375    -5.5034    -1.3418 C.ar    
  24 C24            9.2571    -4.9367    -0.7618 C.ar    
  25 C25            9.2228    -3.6236    -0.3313 C.ar    
  26 C26            8.0702    -2.8759    -0.4842 C.ar    
  27 C27           -5.5162     1.8385    -1.3760 C.3     
  28 F28           -4.8113     0.9054    -2.1438 F       
  29 F29           -6.8745     1.5035    -1.3662 F       
  30 F30           -5.3545     3.1139    -1.9277 F       
  31 H31           -1.2168    -1.7847     0.0041 H       
  32 H32           -3.3153    -0.6159     0.0291 H       
  33 H33           -3.5659     4.3564     0.0574 H       
  34 H34           -5.1047     0.8369     0.4864 H       
  35 H35           -5.5280     2.5576     0.6547 H       
  36 H36            0.9968    -1.6148     1.9277 H       
  37 H37            3.1325    -2.8309     1.8940 H       
  38 H38            3.9909    -1.2391    -1.9814 H       
  39 H39            1.8545    -0.0239    -1.9628 H       
  40 H40            5.1450    -2.9768    -2.0994 H       
  41 H41            5.9516    -1.5796    -1.3472 H       
  42 H42            6.1088    -5.1997    -1.9439 H       
  43 H43            8.1643    -6.5293    -1.6782 H       
  44 H44           10.1584    -5.5200    -0.6448 H       
  45 H45           10.0974    -3.1810     0.1222 H       
  46 H46            8.0434    -1.8500    -0.1478 H       
@<TRIPOS>BOND
   1    1    2 2
   2    1   11 1
   3    1    6 1
   4    2    3 1
   5    2   13 1
   6    3    4 2
   7    3   31 1
   8    4    5 1
   9    4   32 1
  10    5    6 1
  11    5    7 1
  12    6    9 2
  13    7    8 2
  14    7   10 1
  15    8    9 1
  16    8   33 1
  17   10   27 1
  18   10   34 1
  19   10   35 1
  20   11   12 3
  21   13   14 ar
  22   13   18 ar
  23   14   15 ar
  24   14   36 1
  25   15   16 ar
  26   15   37 1
  27   16   17 ar
  28   16   19 1
  29   17   18 ar
  30   17   38 1
  31   18   39 1
  32   19   20 1
  33   20   21 1
  34   20   40 1
  35   20   41 1
  36   21   22 ar
  37   21   26 ar
  38   22   23 ar
  39   22   42 1
  40   23   24 ar
  41   23   43 1
  42   24   25 ar
  43   24   44 1
  44   25   26 ar
  45   25   45 1
  46   26   46 1
  47   27   28 1
  48   27   29 1
  49   27   30 1

#	End of record

