#	Name: ASD01140380
#	Creating user name:	WinNT
#	Creation time:	15. 06. 2019 19:00

#	Modifying user name:	WinNT
#	Modification time:	15. 06. 2019 19:00

#	Program:	/corina/corina34_cracker 3.40 0067  02.08.2006

@<TRIPOS>MOLECULE
ASD01140380
  44   48    0    0    0
SMALL
NO_CHARGES


@<TRIPOS>ATOM
   1 S1            -0.0218     1.7597     0.0117 S.3     
   2 C2             0.0021    -0.0041     0.0020 C.2     
   3 N3             1.2511    -0.3828    -0.0119 N.2     
   4 N4             2.1151     0.5378    -0.0152 N.2     
   5 C5             1.6909     1.7656    -0.0046 C.2     
   6 O6             2.4754     2.8708    -0.0062 O.3     
   7 C7             6.0923     3.6704    -0.6230 C.3     
   8 C8             4.5683     3.8299    -0.7431 C.3     
   9 C9             3.8892     2.6628    -0.0208 C.3     
  10 C10            4.4059     2.5744     1.4181 C.3     
  11 C11            5.9410     2.4999     1.3917 C.3     
  12 C12            6.3450     1.4361     0.3451 C.3     
  13 C13            6.4450     2.2096    -0.9862 C.3     
  14 N14            6.4346     3.7810     0.8200 N.3     
  15 C15            7.8852     3.9170     1.0081 C.3     
  16 N16           -1.6886    -4.4254    -0.0050 N.pl3   
  17 C17           -0.3209    -4.4376    -0.0199 C.2     
  18 C18            0.1470    -3.1778    -0.0181 C.2     
  19 C19           -1.0146    -2.2904    -0.0006 C.ar    
  20 C20           -1.1772    -0.8913     0.0085 C.ar    
  21 C21           -2.4605    -0.3539     0.0241 C.ar    
  22 C22           -3.5652    -1.1886     0.0311 C.ar    
  23 C23           -3.4158    -2.5594     0.0228 C.ar    
  24 C24           -2.1445    -3.1256     0.0071 C.ar    
  25 H25            6.6304     4.3899    -1.2401 H       
  26 H26            4.2624     4.7705    -0.2850 H       
  27 H27            4.2824     3.8242    -1.7950 H       
  28 H28            4.1134     1.7330    -0.5435 H       
  29 H29            4.0927     3.4584     1.9734 H       
  30 H30            4.0052     1.6802     1.8956 H       
  31 H31            6.3587     2.2890     2.3762 H       
  32 H32            7.3091     0.9978     0.6024 H       
  33 H33            5.5811     0.6615     0.2772 H       
  34 H34            5.7304     1.8152    -1.7086 H       
  35 H35            7.4584     2.1515    -1.3834 H       
  36 H36            8.2354     4.8133     0.4961 H       
  37 H37            8.1078     3.9960     2.0722 H       
  38 H38            8.3886     3.0427     0.5954 H       
  39 H39           -2.2532    -5.2141    -0.0068 H       
  40 H40            0.2916    -5.3271    -0.0309 H       
  41 H41            1.1845    -2.8779    -0.0277 H       
  42 H42           -2.5953     0.7176     0.0312 H       
  43 H43           -4.5567    -0.7605     0.0436 H       
  44 H44           -4.2883    -3.1958     0.0288 H       
@<TRIPOS>BOND
   1    1    2 1
   2    1    5 1
   3    2    3 2
   4    2   20 1
   5    3    4 1
   6    4    5 2
   7    5    6 1
   8    6    9 1
   9    7    8 1
  10    7   13 1
  11    7   14 1
  12    7   25 1
  13    8    9 1
  14    8   26 1
  15    8   27 1
  16    9   10 1
  17    9   28 1
  18   10   11 1
  19   10   29 1
  20   10   30 1
  21   11   12 1
  22   11   14 1
  23   11   31 1
  24   12   13 1
  25   12   32 1
  26   12   33 1
  27   13   34 1
  28   13   35 1
  29   14   15 1
  30   15   36 1
  31   15   37 1
  32   15   38 1
  33   16   17 1
  34   16   24 1
  35   16   39 1
  36   17   18 2
  37   17   40 1
  38   18   19 1
  39   18   41 1
  40   19   20 ar
  41   19   24 ar
  42   20   21 ar
  43   21   22 ar
  44   21   42 1
  45   22   23 ar
  46   22   43 1
  47   23   24 ar
  48   23   44 1

#	End of record

