#	Name: ASD03331448
#	Creating user name:	WinNT
#	Creation time:	15. 06. 2019 20:39

#	Modifying user name:	WinNT
#	Modification time:	15. 06. 2019 20:39

#	Program:	/corina/corina34_cracker 3.40 0067  02.08.2006

@<TRIPOS>MOLECULE
ASD03331448
  74   77    0    0    0
SMALL
NO_CHARGES


@<TRIPOS>ATOM
   1 C1             1.2802     2.7919     0.4144 C.3     
   2 S2             0.9618     1.0063     0.4407 S.o2    
   3 O3             1.7863     0.3669     1.4054 O.2     
   4 O4            -0.4343     0.7478     0.3834 O.2     
   5 N5             1.5378     0.4624    -1.0136 N.am    
   6 C6             2.9699     0.5445    -1.3112 C.3     
   7 C7             3.2916    -0.3400    -2.5175 C.3     
   8 C8             4.7873    -0.2542    -2.8283 C.3     
   9 N9             5.0832    -0.7375    -5.3153 N.pl3   
  10 C10            5.1042    -1.1254    -4.0164 C.2     
  11 C11            5.4661    -2.4548    -3.9709 C.2     
  12 C12            5.6699    -2.8762    -5.3107 C.2     
  13 C13            5.4287    -1.8055    -6.1097 C.2     
  14 C14            5.6133    -3.2815    -2.7608 C.2     
  15 O15            6.2828    -2.8803    -1.8280 O.2     
  16 N16            5.0061    -4.4825    -2.6872 N.am    
  17 C17            4.2738    -5.0230    -3.8405 C.3     
  18 C18            2.8552    -5.3919    -3.3950 C.3     
  19 C19            2.9317    -6.3419    -2.1976 C.3     
  20 C20            3.6371    -5.6423    -1.0335 C.3     
  21 C21            5.0692    -5.2788    -1.4540 C.3     
  22 C22            1.5172    -6.7398    -1.7715 C.3     
  23 C23            1.5953    -7.7848    -0.6567 C.3     
  24 C24            0.1808    -8.1828    -0.2306 C.3     
  25 O25            0.2538    -9.1588     0.8106 O.3     
  26 C26            5.5217    -1.7903    -7.5855 C.ar    
  27 C27            6.6482    -2.3157    -8.2226 C.ar    
  28 C28            6.7285    -2.2989    -9.6006 C.ar    
  29 C29            5.6954    -1.7621   -10.3502 C.ar    
  30 C30            4.5768    -1.2396    -9.7237 C.ar    
  31 C31            4.4820    -1.2563    -8.3473 C.ar    
  32 Cl32           5.8036    -1.7438   -12.0828 Cl      
  33 Cl33           7.9445    -2.9879    -7.2837 Cl      
  34 C34            4.7560     0.5452    -5.7752 C.ar    
  35 C35            5.7289     1.3422    -6.3635 C.ar    
  36 C36            5.4040     2.6060    -6.8159 C.ar    
  37 C37            4.1100     3.0783    -6.6829 C.ar    
  38 C38            3.1387     2.2861    -6.0965 C.ar    
  39 C39            3.4571     1.0190    -5.6485 C.ar    
  40 Cl40           3.7048     4.6675    -7.2521 Cl      
  41 H41            2.3506     2.9686     0.3089 H       
  42 H42            0.7529     3.2427    -0.4263 H       
  43 H43            0.9284     3.2374     1.3449 H       
  44 H44            0.9270     0.0895    -1.6683 H       
  45 H45            3.2355     1.5773    -1.5368 H       
  46 H46            3.5406     0.2029    -0.4477 H       
  47 H47            3.0260    -1.3728    -2.2918 H       
  48 H48            2.7209     0.0016    -3.3810 H       
  49 H49            5.0529     0.7786    -3.0539 H       
  50 H50            5.3580    -0.5958    -1.9647 H       
  51 H51            5.9627    -3.8641    -5.6342 H       
  52 H52            4.2255    -4.2708    -4.6279 H       
  53 H53            4.7828    -5.9122    -4.2125 H       
  54 H54            2.3173    -4.4882    -3.1086 H       
  55 H55            2.3321    -5.8825    -4.2158 H       
  56 H56            3.4911    -7.2346    -2.4775 H       
  57 H57            3.0918    -4.7362    -0.7693 H       
  58 H58            3.6704    -6.3112    -0.1735 H       
  59 H59            5.6417    -6.1884    -1.6354 H       
  60 H60            5.5459    -4.6954    -0.6663 H       
  61 H61            0.9861    -5.8600    -1.4082 H       
  62 H62            0.9848    -7.1587    -2.6255 H       
  63 H63            2.1264    -8.6647    -1.0200 H       
  64 H64            2.1277    -7.3660     0.1972 H       
  65 H65           -0.3503    -7.3030     0.1327 H       
  66 H66           -0.3516    -8.6016    -1.0846 H       
  67 H67           -0.6084    -9.4578     1.1306 H       
  68 H68            7.5988    -2.7047   -10.0948 H       
  69 H69            3.7745    -0.8221   -10.3140 H       
  70 H70            3.6066    -0.8527    -7.8604 H       
  71 H71            6.7390     0.9743    -6.4669 H       
  72 H72            6.1604     3.2262    -7.2736 H       
  73 H73            2.1296     2.6570    -5.9935 H       
  74 H74            2.6975     0.3991    -5.1956 H       
@<TRIPOS>BOND
   1    1    2 1
   2    1   41 1
   3    1   42 1
   4    1   43 1
   5    2    3 2
   6    2    4 2
   7    2    5 am
   8    5    6 1
   9    5   44 1
  10    6    7 1
  11    6   45 1
  12    6   46 1
  13    7    8 1
  14    7   47 1
  15    7   48 1
  16    8   10 1
  17    8   49 1
  18    8   50 1
  19    9   10 1
  20    9   13 1
  21    9   34 1
  22   10   11 2
  23   11   12 1
  24   11   14 1
  25   12   13 2
  26   12   51 1
  27   13   26 1
  28   14   15 2
  29   14   16 am
  30   16   17 1
  31   16   21 1
  32   17   18 1
  33   17   52 1
  34   17   53 1
  35   18   19 1
  36   18   54 1
  37   18   55 1
  38   19   20 1
  39   19   22 1
  40   19   56 1
  41   20   21 1
  42   20   57 1
  43   20   58 1
  44   21   59 1
  45   21   60 1
  46   22   23 1
  47   22   61 1
  48   22   62 1
  49   23   24 1
  50   23   63 1
  51   23   64 1
  52   24   25 1
  53   24   65 1
  54   24   66 1
  55   25   67 1
  56   26   27 ar
  57   26   31 ar
  58   27   28 ar
  59   27   33 1
  60   28   29 ar
  61   28   68 1
  62   29   30 ar
  63   29   32 1
  64   30   31 ar
  65   30   69 1
  66   31   70 1
  67   34   35 ar
  68   34   39 ar
  69   35   36 ar
  70   35   71 1
  71   36   37 ar
  72   36   72 1
  73   37   38 ar
  74   37   40 1
  75   38   39 ar
  76   38   73 1
  77   39   74 1

#	End of record

