#	Name: ASD09990003
#	Creating user name:	WinNT
#	Creation time:	15. 06. 2019 21:24

#	Modifying user name:	WinNT
#	Modification time:	15. 06. 2019 21:24

#	Program:	/corina/corina34_cracker 3.40 0067  02.08.2006

@<TRIPOS>MOLECULE
ASD09990003
  66   68    0    0    0
SMALL
NO_CHARGES


@<TRIPOS>ATOM
   1 C1             1.1840    -0.5002     0.1616 C.2     
   2 C2            -0.0554    -0.0053    -0.1712 C.2     
   3 C3            -0.0595     1.3204    -0.5322 C.2     
   4 C4             1.1639     1.9248    -0.5009 C.2     
   5 S5             2.3885     0.7712     0.0086 S.3     
   6 C6             1.4481    -1.8277     0.5704 C.2     
   7 O7             0.5274    -2.6020     0.7562 O.2     
   8 O8             2.7214    -2.2365     0.7548 O.3     
   9 C9            -1.8682    -0.9793     1.0164 C.2     
  10 O10           -1.4192    -0.5286     2.0490 O.2     
  11 N11           -1.2126    -0.7850    -0.1450 N.am    
  12 C12           -3.1591    -1.7567     1.0320 C.3     
  13 C13           -3.6365    -1.9235     2.4760 C.3     
  14 C14           -4.9472    -2.7127     2.4919 C.3     
  15 C15           -6.0074    -1.9569     1.6883 C.3     
  16 C16           -5.5299    -1.7901     0.2443 C.3     
  17 C17           -4.2193    -1.0009     0.2284 C.3     
  18 C18           -7.3180    -2.7461     1.7042 C.3     
  19 C19           -1.7147    -1.3923    -1.3801 C.3     
  20 C20           -1.9591    -0.2998    -2.4229 C.3     
  21 C21           -2.4834    -0.9341    -3.7128 C.3     
  22 C22           -1.4514    -1.9286    -4.2483 C.3     
  23 C23           -1.2070    -3.0211    -3.2054 C.3     
  24 C24           -0.6826    -2.3868    -1.9156 C.3     
  25 O25           -1.9411    -2.5209    -5.4529 O.3     
  26 C26            1.4129     3.2950    -0.8340 C.1     
  27 C27            1.6170     4.4184    -1.1072 C.1     
  28 C28            1.8730     5.8269    -1.4496 C.3     
  29 C29            3.3650     6.1270    -1.2924 C.3     
  30 C30            1.4508     6.0846    -2.8974 C.3     
  31 C31            1.0693     6.7332    -0.5150 C.3     
  32 H32           -0.9601     1.8431    -0.8188 H       
  33 H33            2.8019    -3.1589     1.0337 H       
  34 H34           -2.9974    -2.7385     0.5871 H       
  35 H35           -2.8813    -2.4619     3.0485 H       
  36 H36           -3.7982    -0.9416     2.9209 H       
  37 H37           -4.7855    -3.6945     2.0470 H       
  38 H38           -5.2873    -2.8315     3.5207 H       
  39 H39           -6.1690    -0.9751     2.1332 H       
  40 H40           -5.3682    -2.7720    -0.2006 H       
  41 H41           -6.2852    -1.2517    -0.3282 H       
  42 H42           -4.3810    -0.0191     0.6733 H       
  43 H43           -3.8792    -0.8821    -0.8003 H       
  44 H44           -7.6581    -2.8649     2.7329 H       
  45 H45           -8.0733    -2.2077     1.1317 H       
  46 H46           -7.1563    -3.7280     1.2593 H       
  47 H47           -2.6494    -1.9140    -1.1745 H       
  48 H48           -2.6943     0.4087    -2.0414 H       
  49 H49           -1.0243     0.2219    -2.6285 H       
  50 H50           -3.4181    -1.4557    -3.5072 H       
  51 H51           -2.6575    -0.1557    -4.4557 H       
  52 H52           -0.5167    -1.4069    -4.4538 H       
  53 H53           -2.1417    -3.5428    -2.9999 H       
  54 H54           -0.4717    -3.7296    -3.5869 H       
  55 H55            0.2521    -1.8651    -2.1211 H       
  56 H56           -0.5085    -3.1652    -1.1726 H       
  57 H57           -1.3368    -3.1636    -5.8492 H       
  58 H58            3.9376     5.4814    -1.9582 H       
  59 H59            3.5546     7.1700    -1.5460 H       
  60 H60            3.6659     5.9434    -0.2609 H       
  61 H61            0.3878     5.8709    -3.0095 H       
  62 H62            1.6403     7.1276    -3.1510 H       
  63 H63            2.0234     5.4390    -3.5633 H       
  64 H64            1.3701     6.5496     0.5165 H       
  65 H65            1.2588     7.7762    -0.7686 H       
  66 H66            0.0063     6.5195    -0.6270 H       
@<TRIPOS>BOND
   1    1    2 2
   2    1    5 1
   3    1    6 1
   4    2    3 1
   5    2   11 1
   6    3    4 2
   7    3   32 1
   8    4    5 1
   9    4   26 1
  10    6    7 2
  11    6    8 1
  12    8   33 1
  13    9   10 2
  14    9   11 am
  15    9   12 1
  16   11   19 1
  17   12   13 1
  18   12   17 1
  19   12   34 1
  20   13   14 1
  21   13   35 1
  22   13   36 1
  23   14   15 1
  24   14   37 1
  25   14   38 1
  26   15   16 1
  27   15   18 1
  28   15   39 1
  29   16   17 1
  30   16   40 1
  31   16   41 1
  32   17   42 1
  33   17   43 1
  34   18   44 1
  35   18   45 1
  36   18   46 1
  37   19   20 1
  38   19   24 1
  39   19   47 1
  40   20   21 1
  41   20   48 1
  42   20   49 1
  43   21   22 1
  44   21   50 1
  45   21   51 1
  46   22   23 1
  47   22   25 1
  48   22   52 1
  49   23   24 1
  50   23   53 1
  51   23   54 1
  52   24   55 1
  53   24   56 1
  54   25   57 1
  55   26   27 3
  56   27   28 1
  57   28   29 1
  58   28   30 1
  59   28   31 1
  60   29   58 1
  61   29   59 1
  62   29   60 1
  63   30   61 1
  64   30   62 1
  65   30   63 1
  66   31   64 1
  67   31   65 1
  68   31   66 1

#	End of record

