#	Name: ASD01910111
#	Creating user name:	WinNT
#	Creation time:	15. 06. 2019 19:55

#	Modifying user name:	WinNT
#	Modification time:	15. 06. 2019 19:55

#	Program:	/corina/corina34_cracker 3.40 0067  02.08.2006

@<TRIPOS>MOLECULE
ASD01910111
  49   52    0    0    0
SMALL
NO_CHARGES


@<TRIPOS>ATOM
   1 C1            -0.3151     0.8514    -0.5767 C.ar    
   2 C2            -0.2021    -0.5255    -0.6097 C.ar    
   3 C3             1.0423    -1.1308    -0.5241 C.ar    
   4 C4             2.1796    -0.3489    -0.4050 C.ar    
   5 C5             2.0644     1.0559    -0.3718 C.ar    
   6 C6             0.8144     1.6467    -0.4579 C.ar    
   7 C7             3.6247    -0.6388    -0.2929 C.2     
   8 N8             4.2899     0.5269    -0.2017 N.am    
   9 C9             3.4434     1.5716    -0.2407 C.2     
  10 C10            5.7449     0.6433    -0.0756 C.3     
  11 C11            6.3748     0.5731    -1.4428 C.ar    
  12 C12            6.4112     1.7023    -2.2499 C.ar    
  13 C13            6.9924     1.6342    -3.5094 C.ar    
  14 C14            7.5324     0.4443    -3.9559 C.ar    
  15 C15            7.4943    -0.6800    -3.1497 C.ar    
  16 C16            6.9214    -0.6133    -1.8920 C.ar    
  17 N17            5.8628     2.9071    -1.7950 N.am    
  18 C18            6.5279     3.6507    -0.8889 C.2     
  19 C19            5.8889     4.8891    -0.3154 C.3     
  20 O20            7.6409     3.3232    -0.5351 O.2     
  21 O21            3.7592     2.7427    -0.1781 O.2     
  22 O22            4.1273    -1.7443    -0.2840 O.2     
  23 Cl23           8.1730    -2.1747    -3.7145 Cl      
  24 C24            6.8520     5.5487     0.6737 C.3     
  25 C25            6.2032     6.8060     1.2560 C.3     
  26 C26            5.8837     7.7856     0.1249 C.3     
  27 C27            4.9205     7.1260    -0.8641 C.3     
  28 C28            5.5694     5.8687    -1.4464 C.3     
  29 H29           -1.2897     1.3113    -0.6484 H       
  30 H30           -1.0894    -1.1343    -0.7026 H       
  31 H31            1.1246    -2.2074    -0.5497 H       
  32 H32            0.7201     2.7223    -0.4334 H       
  33 H33            5.9941     1.5964     0.3907 H       
  34 H34            6.1225    -0.1725     0.5408 H       
  35 H35            7.0218     2.5111    -4.1392 H       
  36 H36            7.9845     0.3908    -4.9353 H       
  37 H37            6.8929    -1.4920    -1.2648 H       
  38 H38            5.0040     3.2068    -2.1320 H       
  39 H39            4.9681     4.6171     0.2006 H       
  40 H40            7.0797     4.8508     1.4794 H       
  41 H41            7.7728     5.8207     0.1576 H       
  42 H42            5.2824     6.5340     1.7720 H       
  43 H43            6.8894     7.2759     1.9606 H       
  44 H44            5.4215     8.6813     0.5398 H       
  45 H45            6.8045     8.0576    -0.3911 H       
  46 H46            3.9998     6.8540    -0.3481 H       
  47 H47            4.6929     7.8239    -1.6699 H       
  48 H48            6.4901     6.1407    -1.9625 H       
  49 H49            4.8832     5.3988    -2.1510 H       
@<TRIPOS>BOND
   1    1    2 ar
   2    1    6 ar
   3    1   29 1
   4    2    3 ar
   5    2   30 1
   6    3    4 ar
   7    3   31 1
   8    4    5 ar
   9    4    7 1
  10    5    6 ar
  11    5    9 1
  12    6   32 1
  13    7    8 am
  14    7   22 2
  15    8    9 am
  16    8   10 1
  17    9   21 2
  18   10   11 1
  19   10   33 1
  20   10   34 1
  21   11   12 ar
  22   11   16 ar
  23   12   13 ar
  24   12   17 1
  25   13   14 ar
  26   13   35 1
  27   14   15 ar
  28   14   36 1
  29   15   16 ar
  30   15   23 1
  31   16   37 1
  32   17   18 am
  33   17   38 1
  34   18   19 1
  35   18   20 2
  36   19   24 1
  37   19   28 1
  38   19   39 1
  39   24   25 1
  40   24   40 1
  41   24   41 1
  42   25   26 1
  43   25   42 1
  44   25   43 1
  45   26   27 1
  46   26   44 1
  47   26   45 1
  48   27   28 1
  49   27   46 1
  50   27   47 1
  51   28   48 1
  52   28   49 1

#	End of record

