#	Name: ASD09610062
#	Creating user name:	WinNT
#	Creation time:	15. 06. 2019 21:22

#	Modifying user name:	WinNT
#	Modification time:	15. 06. 2019 21:22

#	Program:	/corina/corina34_cracker 3.40 0067  02.08.2006

@<TRIPOS>MOLECULE
ASD09610062
  49   50    0    0    0
SMALL
NO_CHARGES


@<TRIPOS>ATOM
   1 C1            -0.8338     1.5648     0.2590 C.2     
   2 N2            -1.0021     0.2089     0.3513 N.pl3   
   3 N3             0.3507     2.0850     0.4039 N.2     
   4 C4             0.1508    -0.6562     0.6132 C.3     
   5 C5            -2.3351    -0.3766     0.1881 C.3     
   6 C6            -2.5706    -0.7053    -1.2874 C.3     
   7 C7             0.5194     3.4441     0.3114 C.ar    
   8 C8             1.6354     3.9680    -0.3447 C.ar    
   9 C9             1.8008     5.3349    -0.4358 C.ar    
  10 C10            0.8594     6.1885     0.1238 C.ar    
  11 C11           -0.2509     5.6709     0.7767 C.ar    
  12 C12           -0.4262     4.3056     0.8674 C.ar    
  13 C13           -1.2691     6.6021     1.3826 C.3     
  14 Cl14           2.8130     2.9013    -1.0441 Cl      
  15 O15            1.0258     7.5343     0.0326 O.3     
  16 S16            2.3246     7.4609     2.4669 S.3     
  17 N17            2.8100     8.9174     3.1843 N.2     
  18 C18            2.4580     9.8863     2.4012 C.2     
  19 C19            1.8023     9.5396     1.2217 C.2     
  20 C20            1.6240     8.1723     1.0662 C.2     
  21 C21            1.3543    10.5028     0.2615 C.1     
  22 N22            0.9988    11.2670    -0.5002 N.1     
  23 C23            2.7440    11.3242     2.7497 C.3     
  24 C24            3.4692    11.3883     4.0954 C.3     
  25 C25            3.6258    11.9462     1.6651 C.3     
  26 C26            1.4274    12.0981     2.8426 C.3     
  27 H27           -1.6830     2.2021     0.0615 H       
  28 H28            0.2740    -0.7818     1.6889 H       
  29 H29           -0.0125    -1.6294     0.1501 H       
  30 H30            1.0489    -0.2012     0.1953 H       
  31 H31           -2.4059    -1.2894     0.7796 H       
  32 H32           -3.0883     0.3349     0.5266 H       
  33 H33           -2.4999     0.2075    -1.8789 H       
  34 H34           -1.8174    -1.4168    -1.6259 H       
  35 H35           -3.5624    -1.1409    -1.4088 H       
  36 H36            2.6636     5.7413    -0.9426 H       
  37 H37           -1.2928     3.9042     1.3717 H       
  38 H38           -2.0371     6.8312     0.6438 H       
  39 H39           -1.7286     6.1245     2.2481 H       
  40 H40           -0.7783     7.5240     1.6943 H       
  41 H41            4.4072    10.8369     4.0292 H       
  42 H42            3.6761    12.4283     4.3475 H       
  43 H43            2.8411    10.9451     4.8681 H       
  44 H44            3.1091    11.9006     0.7064 H       
  45 H45            3.8327    12.9863     1.9172 H       
  46 H46            4.5638    11.3949     1.5989 H       
  47 H47            0.7992    11.6550     3.6153 H       
  48 H48            1.6343    13.1382     3.0947 H       
  49 H49            0.9108    12.0525     1.8839 H       
@<TRIPOS>BOND
   1    1    2 1
   2    1    3 2
   3    1   27 1
   4    2    4 1
   5    2    5 1
   6    3    7 1
   7    4   28 1
   8    4   29 1
   9    4   30 1
  10    5    6 1
  11    5   31 1
  12    5   32 1
  13    6   33 1
  14    6   34 1
  15    6   35 1
  16    7    8 ar
  17    7   12 ar
  18    8    9 ar
  19    8   14 1
  20    9   10 ar
  21    9   36 1
  22   10   11 ar
  23   10   15 1
  24   11   12 ar
  25   11   13 1
  26   12   37 1
  27   13   38 1
  28   13   39 1
  29   13   40 1
  30   15   20 1
  31   16   17 1
  32   16   20 1
  33   17   18 2
  34   18   19 1
  35   18   23 1
  36   19   20 2
  37   19   21 1
  38   21   22 3
  39   23   24 1
  40   23   26 1
  41   23   25 1
  42   24   41 1
  43   24   42 1
  44   24   43 1
  45   25   44 1
  46   25   45 1
  47   25   46 1
  48   26   47 1
  49   26   48 1
  50   26   49 1

#	End of record

