#	Name: ASD01811372
#	Creating user name:	WinNT
#	Creation time:	15. 06. 2019 19:26

#	Modifying user name:	WinNT
#	Modification time:	15. 06. 2019 19:26

#	Program:	/corina/corina34_cracker 3.40 0067  02.08.2006

@<TRIPOS>MOLECULE
ASD01811372
  27   28    0    0    0
SMALL
NO_CHARGES


@<TRIPOS>ATOM
   1 C1             0.0021    -0.0041     0.0020 C.1     
   2 C2            -0.0173     1.4278     0.0099 C.ar    
   3 C3             1.1804     2.1455     0.0023 C.ar    
   4 C4             1.1544     3.5247     0.0100 C.ar    
   5 C5            -0.0549     4.1969     0.0257 C.ar    
   6 C6            -1.2455     3.4920     0.0337 C.ar    
   7 C7            -1.2341     2.1126     0.0194 C.ar    
   8 N8             0.0175    -1.1399    -0.0042 N.1     
   9 N9            -1.0309     8.3401     0.0955 N.am    
  10 C10           -1.0824     7.6877    -1.0664 C.2     
  11 C11           -0.8151     6.2163    -1.2036 C.3     
  12 C12           -0.0753     5.7037     0.0345 C.3     
  13 C13           -0.8145     6.2027     1.2819 C.3     
  14 C14           -0.6657     7.7224     1.3641 C.3     
  15 O15           -1.3603     8.3162    -2.0658 O.2     
  16 H16            2.1250     1.6220    -0.0092 H       
  17 H17            2.0800     4.0810     0.0042 H       
  18 H18           -2.1859     4.0230     0.0463 H       
  19 H19           -2.1642     1.5637     0.0208 H       
  20 H20           -1.2462     9.2859     0.0957 H       
  21 H21           -1.7610     5.6845    -1.3062 H       
  22 H22           -0.2043     6.0403    -2.0891 H       
  23 H23            0.9460     6.0845     0.0356 H       
  24 H24           -1.8705     5.9420     1.2100 H       
  25 H25           -0.3820     5.7442     2.1712 H       
  26 H26            0.3688     7.9708     1.6012 H       
  27 H27           -1.3146     8.1059     2.1515 H       
@<TRIPOS>BOND
   1    1    2 1
   2    1    8 3
   3    2    3 ar
   4    2    7 ar
   5    3    4 ar
   6    3   16 1
   7    4    5 ar
   8    4   17 1
   9    5    6 ar
  10    5   12 1
  11    6    7 ar
  12    6   18 1
  13    7   19 1
  14    9   10 am
  15    9   14 1
  16    9   20 1
  17   10   11 1
  18   10   15 2
  19   11   12 1
  20   11   21 1
  21   11   22 1
  22   12   13 1
  23   12   23 1
  24   13   14 1
  25   13   24 1
  26   13   25 1
  27   14   26 1
  28   14   27 1

#	End of record

