#	Name: ASD03082112
#	Creating user name:	WinNT
#	Creation time:	15. 06. 2019 20:27

#	Modifying user name:	WinNT
#	Modification time:	15. 06. 2019 20:27

#	Program:	/corina/corina34_cracker 3.40 0067  02.08.2006

@<TRIPOS>MOLECULE
ASD03082112
  36   38    0    0    0
SMALL
NO_CHARGES


@<TRIPOS>ATOM
   1 C1            -0.0166     1.3751     0.0096 C.ar    
   2 C2             0.0021    -0.0041     0.0020 C.ar    
   3 C3             1.2114    -0.6742    -0.0128 C.ar    
   4 C4             2.3907     0.0411    -0.0230 C.ar    
   5 C5             2.3740     1.4301    -0.0188 C.ar    
   6 C6             1.1700     2.0972     0.0022 C.ar    
   7 C7             3.6980     2.1477    -0.0461 C.3     
   8 C8             3.5310     3.6004     0.3950 C.3     
   9 C9             2.3955     4.2272    -0.4224 C.3     
  10 C10            1.0765     3.6004     0.0250 C.3     
  11 N11            4.6321     1.4727     0.8583 N.pl3   
  12 C12            5.3675     0.3733     0.4094 C.ar    
  13 C13            6.2536    -0.2680     1.2656 C.ar    
  14 C14            6.9792    -1.3547     0.8186 C.ar    
  15 C15            6.8243    -1.8046    -0.4799 C.ar    
  16 C16            5.9430    -1.1685    -1.3349 C.ar    
  17 C17            5.2101    -0.0848    -0.8925 C.ar    
  18 N18            7.6039    -2.9692    -0.9557 N.pl3   
  19 O19            8.3808    -3.5303    -0.2039 O.2     
  20 O20            7.4686    -3.3667    -2.0990 O.2     
  21 H21           -0.9616     1.8979     0.0169 H       
  22 H22           -0.9247    -0.5586     0.0080 H       
  23 H23            1.2325    -1.7540    -0.0160 H       
  24 H24            3.3349    -0.4831    -0.0340 H       
  25 H25            4.0990     2.1237    -1.0594 H       
  26 H26            3.2824     3.6356     1.4557 H       
  27 H27            4.4569     4.1470     0.2162 H       
  28 H28            2.3684     5.3029    -0.2484 H       
  29 H29            2.5544     4.0304    -1.4827 H       
  30 H30            0.2800     3.9213    -0.6464 H       
  31 H31            0.8469     3.9309     1.0380 H       
  32 H32            4.7399     1.7892     1.7688 H       
  33 H33            6.3753     0.0831     2.2797 H       
  34 H34            7.6686    -1.8535     1.4836 H       
  35 H35            5.8247    -1.5222    -2.3484 H       
  36 H36            4.5220     0.4115    -1.5608 H       
@<TRIPOS>BOND
   1    1    2 ar
   2    1    6 ar
   3    1   21 1
   4    2    3 ar
   5    2   22 1
   6    3    4 ar
   7    3   23 1
   8    4    5 ar
   9    4   24 1
  10    5    6 ar
  11    5    7 1
  12    6   10 1
  13    7    8 1
  14    7   11 1
  15    7   25 1
  16    8    9 1
  17    8   26 1
  18    8   27 1
  19    9   10 1
  20    9   28 1
  21    9   29 1
  22   10   30 1
  23   10   31 1
  24   11   12 1
  25   11   32 1
  26   12   13 ar
  27   12   17 ar
  28   13   14 ar
  29   13   33 1
  30   14   15 ar
  31   14   34 1
  32   15   16 ar
  33   15   18 1
  34   16   17 ar
  35   16   35 1
  36   17   36 1
  37   18   19 2
  38   18   20 2

#	End of record

