#	Name: ASD02620003
#	Creating user name:	WinNT
#	Creation time:	15. 06. 2019 20:25

#	Modifying user name:	WinNT
#	Modification time:	15. 06. 2019 20:25

#	Program:	/corina/corina34_cracker 3.40 0067  02.08.2006

@<TRIPOS>MOLECULE
ASD02620003
  24   26    0    0    0
SMALL
NO_CHARGES


@<TRIPOS>ATOM
   1 C1            -0.0155     1.2908     0.0091 C.2     
   2 N2             0.0021    -0.0041     0.0020 N.2     
   3 C3             1.3883    -0.4906    -0.0138 C.3     
   4 C4             2.2381     0.7955    -0.0150 C.3     
   5 N5             1.2301     1.8687     0.0003 N.pl3   
   6 O6            -1.3320     3.4223     0.0262 O.3     
   7 C7            -1.2629     2.0753     0.0195 C.2     
   8 C8            -2.5135     1.5514     0.0232 C.2     
   9 C9            -3.4310     2.6916     0.0331 C.ar    
  10 C10           -2.6141     3.8373     0.0344 C.ar    
  11 C11           -4.8208     2.8228     0.0399 C.ar    
  12 C12           -5.3838     4.0685     0.0479 C.ar    
  13 C13           -4.5830     5.2017     0.0492 C.ar    
  14 C14           -3.2086     5.0932     0.0433 C.ar    
  15 H15            1.5949    -1.0838     0.8770 H       
  16 H16            1.5778    -1.0742    -0.9147 H       
  17 H17            2.8641     0.8434     0.8760 H       
  18 H18            2.8469     0.8530    -0.9173 H       
  19 H19            1.4144     2.8210     0.0034 H       
  20 H20           -2.7789     0.5045     0.0192 H       
  21 H21           -5.4486     1.9440     0.0385 H       
  22 H22           -6.4588     4.1713     0.0528 H       
  23 H23           -5.0414     6.1796     0.0552 H       
  24 H24           -2.5955     5.9823     0.0447 H       
@<TRIPOS>BOND
   1    1    2 2
   2    1    5 1
   3    1    7 1
   4    2    3 1
   5    3    4 1
   6    3   15 1
   7    3   16 1
   8    4    5 1
   9    4   17 1
  10    4   18 1
  11    5   19 1
  12    6    7 1
  13    6   10 1
  14    7    8 2
  15    8    9 1
  16    8   20 1
  17    9   10 ar
  18    9   11 ar
  19   10   14 ar
  20   11   12 ar
  21   11   21 1
  22   12   13 ar
  23   12   22 1
  24   13   14 ar
  25   13   23 1
  26   14   24 1

#	End of record

