#	Name: ASD01884874
#	Creating user name:	WinNT
#	Creation time:	15. 06. 2019 19:49

#	Modifying user name:	WinNT
#	Modification time:	15. 06. 2019 19:49

#	Program:	/corina/corina34_cracker 3.40 0067  02.08.2006

@<TRIPOS>MOLECULE
ASD01884874
  47   52    0    0    0
SMALL
NO_CHARGES


@<TRIPOS>ATOM
   1 C1            -0.0164     1.3605     0.0095 C.ar    
   2 C2             0.0021    -0.0041     0.0020 C.ar    
   3 C3             1.2155    -0.7018    -0.0133 C.ar    
   4 C4             2.4184    -0.0069    -0.0206 C.ar    
   5 C5             2.4036     1.3873    -0.0130 C.ar    
   6 C6             1.1768     2.0775     0.0020 C.ar    
   7 C7             3.4482     2.4154    -0.0170 C.2     
   8 C8             2.8279     3.6057    -0.0049 C.2     
   9 N9             1.4699     3.4247     0.0066 N.pl3   
  10 C10            1.2170    -2.1836    -0.0213 C.2     
  11 C11            0.7029    -2.8767    -1.1021 C.2     
  12 C12            1.7501    -2.9041     1.0751 C.2     
  13 C13            1.7514    -4.2501     1.0657 C.2     
  14 N14            1.2413    -4.9432     0.0054 N.pl3   
  15 C15            0.7189    -4.2828    -1.0801 C.2     
  16 Cl16           0.0473    -2.0241    -2.4647 Cl      
  17 C17            1.1136    -6.2704    -0.2704 C.2     
  18 N18            0.5461    -6.3762    -1.4442 N.2     
  19 N19            0.3089    -5.2096    -1.9324 N.2     
  20 C20            1.5472    -7.4099     0.6153 C.3     
  21 C21            0.5208     4.4549     0.0204 C.ar    
  22 C22            0.4705    -8.3928     1.0799 C.3     
  23 C23            1.4947    -8.8214     0.0271 C.3     
  24 C24            0.6174     5.4921     0.9442 C.ar    
  25 C25           -0.5272     4.4597    -0.8909 C.ar    
  26 N26           -1.4218     5.4273    -0.8813 N.ar    
  27 C27           -1.3614     6.4211    -0.0163 C.ar    
  28 C28           -0.3451     6.4883     0.9183 C.ar    
  29 C29           -2.4115     7.5014    -0.0511 C.3     
  30 H30           -0.9600     1.8859     0.0168 H       
  31 H31           -0.9290    -0.5512     0.0083 H       
  32 H32            3.3566    -0.5417    -0.0317 H       
  33 H33            4.5149     2.2472    -0.0272 H       
  34 H34            3.3257     4.5641    -0.0038 H       
  35 H35            2.1576    -2.3716     1.9218 H       
  36 H36            2.1614    -4.7887     1.9072 H       
  37 H37            2.3558    -7.1838     1.3104 H       
  38 H38            0.5710    -8.8135     2.0803 H       
  39 H39           -0.5514    -8.2151     0.7448 H       
  40 H40            1.1466    -8.9257    -1.0005 H       
  41 H41            2.2690    -9.5241     0.3350 H       
  42 H42            1.4225     5.5192     1.6635 H       
  43 H43           -0.6096     3.6626    -1.6150 H       
  44 H44           -0.3040     7.3060     1.6226 H       
  45 H45           -3.2406     7.2233     0.5995 H       
  46 H46           -1.9783     8.4404     0.2936 H       
  47 H47           -2.7750     7.6220    -1.0716 H       
@<TRIPOS>BOND
   1    1    2 ar
   2    1    6 ar
   3    1   30 1
   4    2    3 ar
   5    2   31 1
   6    3    4 ar
   7    3   10 1
   8    4    5 ar
   9    4   32 1
  10    5    6 ar
  11    5    7 1
  12    6    9 1
  13    7    8 2
  14    7   33 1
  15    8    9 1
  16    8   34 1
  17    9   21 1
  18   10   11 2
  19   10   12 1
  20   11   16 1
  21   11   15 1
  22   12   13 2
  23   12   35 1
  24   13   14 1
  25   13   36 1
  26   14   15 1
  27   14   17 1
  28   15   19 2
  29   17   18 2
  30   17   20 1
  31   18   19 1
  32   20   22 1
  33   20   23 1
  34   20   37 1
  35   21   24 ar
  36   21   25 ar
  37   22   23 1
  38   22   38 1
  39   22   39 1
  40   23   40 1
  41   23   41 1
  42   24   28 ar
  43   24   42 1
  44   25   26 ar
  45   25   43 1
  46   26   27 ar
  47   27   28 ar
  48   27   29 1
  49   28   44 1
  50   29   45 1
  51   29   46 1
  52   29   47 1

#	End of record

