#	Name: ASD01910178
#	Creating user name:	WinNT
#	Creation time:	15. 06. 2019 19:55

#	Modifying user name:	WinNT
#	Modification time:	15. 06. 2019 19:55

#	Program:	/corina/corina34_cracker 3.40 0067  02.08.2006

@<TRIPOS>MOLECULE
ASD01910178
  40   42    0    0    0
SMALL
NO_CHARGES


@<TRIPOS>ATOM
   1 C1             0.1647     1.6637    -0.3716 C.ar    
   2 C2             0.1010     0.2854    -0.3053 C.ar    
   3 C3             1.2654    -0.4593    -0.1612 C.ar    
   4 C4             2.4928     0.1829    -0.0843 C.ar    
   5 C5             2.5534     1.5677    -0.1517 C.ar    
   6 C6             1.3856     2.3064    -0.2954 C.ar    
   7 N7             3.7885     2.2190    -0.0742 N.am    
   8 C8             4.0025     3.3447    -0.7836 C.2     
   9 C9             5.2626     4.0982    -0.6121 C.ar    
  10 N10            1.1999    -1.8546    -0.0932 N.am    
  11 C11            2.1786    -2.6026    -0.6402 C.2     
  12 C12            5.4872     5.2644    -1.3453 C.ar    
  13 C13            6.6652     5.9637    -1.1806 C.ar    
  14 C14            7.6233     5.5115    -0.2914 C.ar    
  15 C15            7.4074     4.3551     0.4395 C.ar    
  16 C16            6.2305     3.6495     0.2881 C.ar    
  17 O17            3.1595    -2.0656    -1.1173 O.2     
  18 O18            3.1591     3.7405    -1.5646 O.2     
  19 C19            2.0595    -4.0746    -0.6600 C.ar    
  20 Cl20           8.6162     3.7953     1.5526 Cl      
  21 C21            3.0722    -4.8521    -1.2262 C.ar    
  22 C22            2.9561    -6.2255    -1.2416 C.ar    
  23 C23            1.8364    -6.8353    -0.6967 C.ar    
  24 C24            0.8278    -6.0682    -0.1337 C.ar    
  25 C25            0.9365    -4.6944    -0.1074 C.ar    
  26 F26            1.7274    -8.1817    -0.7148 F       
  27 H27           -0.7412     2.2400    -0.4877 H       
  28 H28           -0.8547    -0.2139    -0.3652 H       
  29 H29            3.3991    -0.3936     0.0281 H       
  30 H30            1.4321     3.3841    -0.3483 H       
  31 H31            4.4913     1.8605     0.4902 H       
  32 H32            0.4502    -2.2841     0.3476 H       
  33 H33            4.7404     5.6185    -2.0406 H       
  34 H34            6.8396     6.8662    -1.7476 H       
  35 H35            8.5439     6.0623    -0.1669 H       
  36 H36            6.0626     2.7480     0.8587 H       
  37 H37            3.9444    -4.3781    -1.6515 H       
  38 H38            3.7386    -6.8277    -1.6792 H       
  39 H39           -0.0424    -6.5482     0.2890 H       
  40 H40            0.1505    -4.0978     0.3317 H       
@<TRIPOS>BOND
   1    1    2 ar
   2    1    6 ar
   3    1   27 1
   4    2    3 ar
   5    2   28 1
   6    3    4 ar
   7    3   10 1
   8    4    5 ar
   9    4   29 1
  10    5    6 ar
  11    5    7 1
  12    6   30 1
  13    7    8 am
  14    7   31 1
  15    8    9 1
  16    8   18 2
  17    9   12 ar
  18    9   16 ar
  19   10   11 am
  20   10   32 1
  21   11   17 2
  22   11   19 1
  23   12   13 ar
  24   12   33 1
  25   13   14 ar
  26   13   34 1
  27   14   15 ar
  28   14   35 1
  29   15   16 ar
  30   15   20 1
  31   16   36 1
  32   19   21 ar
  33   19   25 ar
  34   21   22 ar
  35   21   37 1
  36   22   23 ar
  37   22   38 1
  38   23   24 ar
  39   23   26 1
  40   24   25 ar
  41   24   39 1
  42   25   40 1

#	End of record

