#	Name: ASD01882951
#	Creating user name:	WinNT
#	Creation time:	15. 06. 2019 19:45

#	Modifying user name:	WinNT
#	Modification time:	15. 06. 2019 19:45

#	Program:	/corina/corina34_cracker 3.40 0067  02.08.2006

@<TRIPOS>MOLECULE
ASD01882951
  55   58    0    0    0
SMALL
NO_CHARGES


@<TRIPOS>ATOM
   1 C1            -1.2731    -1.7499    -0.2113 C.2     
   2 C2            -1.4523    -3.1244    -0.7148 C.ar    
   3 C3            -0.3107    -3.9056    -0.9625 C.ar    
   4 N4             0.9483    -3.3883    -0.7367 N.pl3   
   5 C5             1.1501    -2.1435    -0.2796 C.2     
   6 C6             0.1069    -1.2851    -0.0004 C.2     
   7 C7             2.0618    -4.1967    -0.9952 C.ar    
   8 C8             2.8489    -3.9590    -2.1145 C.ar    
   9 C9             3.9470    -4.7572    -2.3673 C.ar    
  10 C10            4.2634    -5.7944    -1.5058 C.ar    
  11 C11            3.4798    -6.0332    -0.3891 C.ar    
  12 C12            2.3841    -5.2338    -0.1295 C.ar    
  13 C13           -2.7243    -3.6487    -0.9434 C.ar    
  14 C14           -2.8549    -4.9370    -1.4136 C.ar    
  15 C15           -1.7292    -5.7101    -1.6585 C.ar    
  16 C16           -0.4665    -5.2047    -1.4379 C.ar    
  17 O17           -2.2279    -1.0275     0.0156 O.2     
  18 C18            0.3699     0.0735     0.4994 C.2     
  19 O19            1.5056     0.4108     0.7752 O.2     
  20 N20           -0.6474     0.9443     0.6517 N.am    
  21 F21            5.3376    -6.5747    -1.7554 F       
  22 C22           -4.2266    -5.5091    -1.6627 C.3     
  23 N23           -4.6325    -5.2239    -3.0454 N.3     
  24 C24           -5.8521    -5.9635    -3.3995 C.3     
  25 C25           -3.5450    -5.5260    -3.9865 C.3     
  26 C26           -3.9783    -5.1416    -5.4031 C.3     
  27 N27           -5.1978    -5.8812    -5.7572 N.3     
  28 C28           -6.2854    -5.5791    -4.8161 C.3     
  29 C29           -5.6037    -5.5959    -7.1399 C.3     
  30 C30           -4.6965    -6.3607    -8.1058 C.3     
  31 F31           -4.7005    -7.7194    -7.7725 F       
  32 F32           -5.1668    -6.2000    -9.4135 F       
  33 F33           -3.3926    -5.8620    -8.0146 F       
  34 H34            2.1629    -1.8022    -0.1243 H       
  35 H35            2.6021    -3.1507    -2.7869 H       
  36 H36            4.5594    -4.5727    -3.2375 H       
  37 H37            3.7281    -6.8428     0.2812 H       
  38 H38            1.7760    -5.4175     0.7439 H       
  39 H39           -3.6016    -3.0485    -0.7526 H       
  40 H40           -1.8439    -6.7189    -2.0268 H       
  41 H41            0.4019    -5.8165    -1.6327 H       
  42 H42           -1.5401     0.7032     0.3587 H       
  43 H43           -0.4869     1.8121     1.0543 H       
  44 H44           -4.2045    -6.5875    -1.5056 H       
  45 H45           -4.9398    -5.0562    -0.9739 H       
  46 H46           -5.6529    -7.0344    -3.3581 H       
  47 H47           -6.6461    -5.7135    -2.6959 H       
  48 H48           -2.6570    -4.9571    -3.7108 H       
  49 H49           -3.3196    -6.5919    -3.9517 H       
  50 H50           -4.1775    -4.0707    -5.4445 H       
  51 H51           -3.1842    -5.3916    -6.1067 H       
  52 H52           -7.1733    -6.1480    -5.0918 H       
  53 H53           -6.5108    -4.5132    -4.8508 H       
  54 H54           -6.6373    -5.9092    -7.2871 H       
  55 H55           -5.5176    -4.5262    -7.3305 H       
@<TRIPOS>BOND
   1    1    2 1
   2    1    6 1
   3    1   17 2
   4    2    3 ar
   5    2   13 ar
   6    3    4 1
   7    3   16 ar
   8    4    5 1
   9    4    7 1
  10    5    6 2
  11    5   34 1
  12    6   18 1
  13    7    8 ar
  14    7   12 ar
  15    8    9 ar
  16    8   35 1
  17    9   10 ar
  18    9   36 1
  19   10   11 ar
  20   10   21 1
  21   11   12 ar
  22   11   37 1
  23   12   38 1
  24   13   14 ar
  25   13   39 1
  26   14   15 ar
  27   14   22 1
  28   15   16 ar
  29   15   40 1
  30   16   41 1
  31   18   19 2
  32   18   20 am
  33   20   42 1
  34   20   43 1
  35   22   23 1
  36   22   44 1
  37   22   45 1
  38   23   24 1
  39   23   25 1
  40   24   28 1
  41   24   46 1
  42   24   47 1
  43   25   26 1
  44   25   48 1
  45   25   49 1
  46   26   27 1
  47   26   50 1
  48   26   51 1
  49   27   28 1
  50   27   29 1
  51   28   52 1
  52   28   53 1
  53   29   30 1
  54   29   54 1
  55   29   55 1
  56   30   31 1
  57   30   32 1
  58   30   33 1

#	End of record

