#	Name: ASD00069310
#	Creating user name:	WinNT
#	Creation time:	15. 06. 2019 18:29

#	Modifying user name:	WinNT
#	Modification time:	15. 06. 2019 18:29

#	Program:	/corina/corina34_cracker 3.40 0067  02.08.2006

@<TRIPOS>MOLECULE
ASD00069310
  56   58    0    0    0
SMALL
NO_CHARGES


@<TRIPOS>ATOM
   1 C1            -0.0741     1.6452    -0.1187 C.3     
   2 N2            -0.1376     0.1783    -0.1773 N.am    
   3 C3             0.6199    -0.5198    -1.2250 C.3     
   4 C4             2.0822    -0.0680    -1.1610 C.3     
   5 C5             2.1450     1.4585    -1.2523 C.3     
   6 C6             1.3952     2.0731    -0.0693 C.3     
   7 C7             1.4846     3.5992    -0.1420 C.3     
   8 C8             0.7825     4.2048     1.0757 C.3     
   9 N9             1.4211     3.7151     2.3040 N.3     
  10 C10            1.3048     2.2558     2.4185 C.3     
  11 C11            2.0226     1.5917     1.2411 C.3     
  12 C12           -0.8761    -0.5134     0.7130 C.2     
  13 O13           -1.4977     0.0759     1.5750 O.2     
  14 O14           -0.9251    -1.8573     0.6474 O.3     
  15 C15            0.8901     4.3517     3.4347 C.ar    
  16 C16            1.7019     5.1626     4.2264 C.ar    
  17 C17            1.1706     5.7901     5.3433 C.ar    
  18 C18           -0.1609     5.6107     5.6702 C.ar    
  19 C19           -0.9671     4.8066     4.8865 C.ar    
  20 C20           -0.4470     4.1810     3.7660 C.ar    
  21 F21           -1.2391     3.4006     2.9987 F       
  22 N22            3.0503     5.3428     3.8950 N.pl3   
  23 C23           -1.7404    -2.5364     1.6386 C.3     
  24 C24           -3.1909    -2.0656     1.5150 C.3     
  25 C25           -1.6729    -4.0471     1.4061 C.3     
  26 C26           -1.2164    -2.2120     3.0390 C.3     
  27 H27           -0.5480     2.0671    -1.0050 H       
  28 H28           -0.5877     1.9978     0.7757 H       
  29 H29            0.5625    -1.5960    -1.0618 H       
  30 H30            0.2039    -0.2738    -2.2020 H       
  31 H31            2.5230    -0.3945    -0.2190 H       
  32 H32            2.6348    -0.5053    -1.9926 H       
  33 H33            3.1859     1.7811    -1.2297 H       
  34 H34            1.6837     1.7858    -2.1841 H       
  35 H35            2.5315     3.9026    -0.1467 H       
  36 H36            0.9995     3.9492    -1.0532 H       
  37 H37            0.8581     5.2914     1.0354 H       
  38 H38           -0.2679     3.9135     1.0715 H       
  39 H39            1.7596     1.9273     3.3531 H       
  40 H40            0.2521     1.9734     2.4081 H       
  41 H41            1.9214     0.5091     1.3168 H       
  42 H42            3.0785     1.8613     1.2596 H       
  43 H43            1.7974     6.4189     5.9583 H       
  44 H44           -0.5722     6.1001     6.5407 H       
  45 H45           -2.0063     4.6691     5.1465 H       
  46 H46            3.4406     4.8422     3.1615 H       
  47 H47            3.5942     5.9683     4.3988 H       
  48 H48           -3.5642    -2.2967     0.5173 H       
  49 H49           -3.8030    -2.5754     2.2591 H       
  50 H50           -3.2390    -0.9893     1.6806 H       
  51 H51           -0.6395    -4.3825     1.4941 H       
  52 H52           -2.2850    -4.5569     2.1501 H       
  53 H53           -2.0462    -4.2782     0.4084 H       
  54 H54           -1.2645    -1.1357     3.2046 H       
  55 H55           -1.8285    -2.7217     3.7830 H       
  56 H56           -0.1831    -2.5473     3.1270 H       
@<TRIPOS>BOND
   1    1    2 1
   2    1    6 1
   3    1   27 1
   4    1   28 1
   5    2    3 1
   6    2   12 am
   7    3    4 1
   8    3   29 1
   9    3   30 1
  10    4    5 1
  11    4   31 1
  12    4   32 1
  13    5    6 1
  14    5   33 1
  15    5   34 1
  16    6    7 1
  17    6   11 1
  18    7    8 1
  19    7   35 1
  20    7   36 1
  21    8    9 1
  22    8   37 1
  23    8   38 1
  24    9   10 1
  25    9   15 1
  26   10   11 1
  27   10   39 1
  28   10   40 1
  29   11   41 1
  30   11   42 1
  31   12   13 2
  32   12   14 1
  33   14   23 1
  34   15   16 ar
  35   15   20 ar
  36   16   17 ar
  37   16   22 1
  38   17   18 ar
  39   17   43 1
  40   18   19 ar
  41   18   44 1
  42   19   20 ar
  43   19   45 1
  44   20   21 1
  45   22   46 1
  46   22   47 1
  47   23   24 1
  48   23   26 1
  49   23   25 1
  50   24   48 1
  51   24   49 1
  52   24   50 1
  53   25   51 1
  54   25   52 1
  55   25   53 1
  56   26   54 1
  57   26   55 1
  58   26   56 1

#	End of record

