#	Name: ASD01020011
#	Creating user name:	WinNT
#	Creation time:	15. 06. 2019 18:56

#	Modifying user name:	WinNT
#	Modification time:	15. 06. 2019 18:56

#	Program:	/corina/corina34_cracker 3.40 0067  02.08.2006

@<TRIPOS>MOLECULE
ASD01020011
 208  214    0    0    0
SMALL
NO_CHARGES


@<TRIPOS>ATOM
   1 C1             6.0432    -0.1856    -0.8984 C.ar    
   2 C2             6.2229    -1.4718    -0.4277 C.ar    
   3 C3             7.3364    -1.7787     0.3409 C.ar    
   4 C4             8.2668    -0.7924     0.6347 C.ar    
   5 C5             8.0824     0.4924     0.1616 C.ar    
   6 C6             6.9718     0.7956    -0.6042 C.ar    
   7 O7             7.5153    -3.0432     0.8055 O.3     
   8 C8             6.7732     2.1980    -1.1190 C.3     
   9 C9             5.9728     3.0078    -0.0970 C.3     
  10 C10            5.8793     4.4409    -0.5538 C.2     
  11 N11            4.6219     2.4437     0.0250 N.3     
  12 O12            4.8716     4.8392    -1.0987 O.2     
  13 N13            6.9155     5.2799    -0.3568 N.am    
  14 C14            6.8247     6.6730    -0.8009 C.3     
  15 C15            7.7556     7.5247     0.0232 C.2     
  16 N16            7.8402     8.8495    -0.2092 N.am    
  17 O17            8.4287     7.0178     0.8956 O.2     
  18 C18            7.2206     6.7650    -2.2759 C.3     
  19 C19            6.2178     6.0136    -3.1130 C.2     
  20 N20            4.7348     5.4981    -4.6259 N.pl3   
  21 C21            5.5271     6.5109    -4.1566 C.2     
  22 N22            5.8612     4.7305    -2.9529 N.2     
  23 C23            4.9718     4.4153    -3.8544 C.2     
  24 C24            8.7452     9.6774     0.5919 C.3     
  25 C25            9.1298    10.9052    -0.1927 C.2     
  26 C26            8.0423    10.0977     1.8843 C.3     
  27 C27            7.7674     8.8782     2.7260 C.2     
  28 C28            8.6932     8.2414     3.6659 C.ar    
  29 C29            7.9993     7.1467     4.2134 C.ar    
  30 N30            6.7474     7.1316     3.6403 N.pl3   
  31 C31            6.6258     8.1730     2.7610 C.2     
  32 C32           10.0037     8.5066     4.0671 C.ar    
  33 C33           10.6066     7.7002     4.9911 C.ar    
  34 C34            9.9266     6.6189     5.5338 C.ar    
  35 C35            8.6338     6.3369     5.1494 C.ar    
  36 N36            9.9613    11.8176     0.3482 N.am    
  37 C37           10.3352    13.0111    -0.4146 C.3     
  38 C38           10.7198    14.1151     0.5364 C.2     
  39 C39           11.5219    12.6845    -1.3235 C.3     
  40 C40           11.1008    11.6686    -2.3538 C.ar    
  41 C41           10.8407     9.3851    -3.0260 C.ar    
  42 C42           11.2260    10.3184    -2.0832 C.ar    
  43 C43           10.5845    12.0881    -3.5659 C.ar    
  44 C44           10.1973    11.1588    -4.5119 C.ar    
  45 C45           10.3273     9.8036    -4.2450 C.ar    
  46 O46            9.9475     8.8874    -5.1741 O.3     
  47 N47           11.1024    15.3150     0.0567 N.am    
  48 O48           10.6850    13.9237     1.7335 O.2     
  49 C49           11.4763    16.3882     0.9812 C.3     
  50 C50           11.8609    17.6159     0.1965 C.2     
  51 N51           12.2436    18.7356     0.8417 N.am    
  52 O52           11.8262    17.5964    -1.0157 O.2     
  53 C53           12.6175    19.9292     0.0789 C.3     
  54 C54           12.4077    21.1552     0.9297 C.2     
  55 N55           12.6873    22.3763     0.4325 N.am    
  56 O56           11.9872    21.0431     2.0617 O.2     
  57 C57           14.0900    19.8351    -0.3259 C.3     
  58 C58           14.2771    18.6801    -1.2756 C.ar    
  59 C59           14.7377    16.3606    -1.6511 C.ar    
  60 C60           14.5657    17.4210    -0.7826 C.ar    
  61 C61           14.1543    18.8802    -2.6382 C.ar    
  62 C62           14.3250    17.8230    -3.5109 C.ar    
  63 C63           14.6202    16.5598    -3.0190 C.ar    
  64 C64           12.4833    23.5682     1.2596 C.3     
  65 C65           13.3881    24.6736     0.7795 C.2     
  66 C66           11.0254    24.0198     1.1526 C.3     
  67 O67           10.7238    24.3377    -0.2075 O.3     
  68 C68           10.1063    22.8932     1.6290 C.3     
  69 N69           13.8248    25.6105     1.6443 N.am    
  70 O70           13.7233    24.7202    -0.3852 O.2     
  71 C71           14.7882    26.6778     1.3370 C.3     
  72 C72           13.4108    25.7388     3.0534 C.3     
  73 C73           13.6603    27.2264     3.4062 C.3     
  74 C74           14.9623    27.5206     2.6180 C.3     
  75 C75           16.1101    26.0751     0.9364 C.2     
  76 N76           17.1443    26.8754     0.6101 N.am    
  77 O77           16.2434    24.8700     0.9077 O.2     
  78 C78           18.4294    26.2896     0.2206 C.3     
  79 C79           19.1822    27.2631    -0.6492 C.2     
  80 C80           19.2516    25.9844     1.4743 C.3     
  81 C81           18.5464    24.9035     2.2961 C.3     
  82 C82           19.3563    24.6029     3.5309 C.2     
  83 N83           18.9261    23.6762     4.4099 N.am    
  84 O84           20.3952    25.1949     3.7337 O.2     
  85 N85           20.3987    26.9368    -1.1291 N.am    
  86 C86           21.1776    27.9227    -1.8823 C.3     
  87 C87           22.6404    27.5677    -1.8113 C.2     
  88 C88           20.7232    27.9233    -3.3433 C.3     
  89 C89           20.9136    26.5479    -3.9291 C.2     
  90 N90           20.6745    26.3340    -5.2381 N.am    
  91 O91           21.2819    25.6335    -3.2226 O.2     
  92 O92           22.9972    26.5876    -1.1925 O.2     
  93 N93           23.5522    28.3393    -2.4356 N.am    
  94 C94           24.9743    27.9942    -2.3666 C.3     
  95 C95           25.6892    28.5685    -3.5625 C.2     
  96 C96           25.5779    28.5727    -1.0852 C.3     
  97 C97           25.3141    30.0788    -1.0320 C.3     
  98 C98           24.9367    27.8994     0.1298 C.3     
  99 N99           26.9365    28.1563    -3.8640 N.am    
 100 O100          25.1422    29.4015    -4.2536 O.2     
 101 C101          27.6739    28.7929    -4.9581 C.3     
 102 C102          28.3626    30.0316    -4.4459 C.2     
 103 C103          28.7185    27.8176    -5.5045 C.3     
 104 C104          29.4886    28.4825    -6.6472 C.3     
 105 C105          30.4460    27.4677    -7.2752 C.3     
 106 C106          29.6922    27.4350    -4.3880 C.3     
 107 O107          29.1021    30.7812    -5.2783 O.3     
 108 O108          28.2491    30.3499    -3.2858 O.2     
 109 O109           8.6912    11.0722    -1.3111 O.2     
 110 O110          14.7889    15.5182    -3.8755 O.3     
 111 O111          18.6935    28.3402    -0.9174 O.2     
 112 H112           5.1789     0.0528    -1.5005 H       
 113 H113           5.4971    -2.2378    -0.6575 H       
 114 H114           9.1342    -1.0287     1.2331 H       
 115 H115           8.8062     1.2606     0.3903 H       
 116 H116           8.0159    -3.6148     0.2075 H       
 117 H117           7.7439     2.6685    -1.2754 H       
 118 H118           6.2291     2.1649    -2.0629 H       
 119 H119           6.4725     2.9668     0.8708 H       
 120 H120           4.1376     2.4703    -0.8598 H       
 121 H121           4.6542     1.5041     0.3915 H       
 122 H122           7.7214     4.9613     0.0789 H       
 123 H123           5.8016     7.0280    -0.6765 H       
 124 H124           7.3018     9.2549    -0.9069 H       
 125 H125           7.2390     7.8108    -2.5826 H       
 126 H126           8.2096     6.3283    -2.4145 H       
 127 H127           4.1197     5.5481    -5.3743 H       
 128 H128           5.5863     7.5159    -4.5476 H       
 129 H129           4.5030     3.4487    -3.9651 H       
 130 H130           9.6411     9.1060     0.8348 H       
 131 H131           8.6814    10.7851     2.4385 H       
 132 H132           7.1013    10.5916     1.6421 H       
 133 H133           6.0539     6.4816     3.8336 H       
 134 H134           5.7428     8.3936     2.1797 H       
 135 H135          10.5392     9.3459     3.6485 H       
 136 H136          11.6205     7.9058     5.3012 H       
 137 H137          10.4167     5.9905     6.2628 H       
 138 H138           8.1144     5.4910     5.5748 H       
 139 H139          10.3121    11.6840     1.2426 H       
 140 H140           9.4898    13.3334    -1.0225 H       
 141 H141          11.8566    13.5928    -1.8245 H       
 142 H142          12.3371    12.2783    -0.7247 H       
 143 H143          10.9391     8.3307    -2.8143 H       
 144 H144          11.6258     9.9932    -1.1341 H       
 145 H145          10.4835    13.1432    -3.7732 H       
 146 H146           9.7935    11.4869    -5.4582 H       
 147 H147           9.0226     8.6146    -5.1024 H       
 148 H148          11.1303    15.4681    -0.9008 H       
 149 H149          10.6309    16.6209     1.6287 H       
 150 H150          12.3217    16.0659     1.5891 H       
 151 H151          12.2714    18.7512     1.8112 H       
 152 H152          11.9984    19.9974    -0.8156 H       
 153 H153          13.0236    22.4660    -0.4729 H       
 154 H154          14.3920    20.7609    -0.8156 H       
 155 H155          14.7017    19.6778     0.5625 H       
 156 H156          14.9634    15.3774    -1.2656 H       
 157 H157          14.6570    17.2665     0.2824 H       
 158 H158          13.9245    19.8638    -3.0206 H       
 159 H159          14.2283    17.9796    -4.5751 H       
 160 H160          12.7158    23.3338     2.2984 H       
 161 H161          10.8717    24.9017     1.7746 H       
 162 H162           9.8138    24.6322    -0.3501 H       
 163 H163          10.2601    22.0114     1.0071 H       
 164 H164          10.3364    22.6508     2.6665 H       
 165 H165           9.0677    23.2149     1.5529 H       
 166 H166          14.4041    27.3031     0.5311 H       
 167 H167          12.3538    25.4953     3.1619 H       
 168 H168          14.0170    25.0918     3.6874 H       
 169 H169          12.8420    27.8542     3.0534 H       
 170 H170          13.8140    27.3534     4.4778 H       
 171 H171          15.8379    27.1936     3.1788 H       
 172 H172          15.0324    28.5810     2.3754 H       
 173 H173          17.0378    27.8393     0.6331 H       
 174 H174          18.2552    25.3670    -0.3331 H       
 175 H175          20.2410    25.6318     1.1830 H       
 176 H176          19.3503    26.8897     2.0733 H       
 177 H177          17.5570    25.2561     2.5874 H       
 178 H178          18.4477    23.9982     1.6970 H       
 179 H179          18.0952    23.2027     4.2477 H       
 180 H180          19.4474    23.4827     5.2047 H       
 181 H181          20.7584    26.0491    -0.9757 H       
 182 H182          21.0227    28.9127    -1.4533 H       
 183 H183          19.6697    28.1981    -3.3961 H       
 184 H184          21.3153    28.6437    -3.9076 H       
 185 H185          20.3799    27.0653    -5.8032 H       
 186 H186          20.7970    25.4487    -5.6152 H       
 187 H187          23.2669    29.1232    -2.9305 H       
 188 H188          25.0853    26.9098    -2.3631 H       
 189 H189          26.6527    28.3915    -1.0759 H       
 190 H190          24.2393    30.2600    -1.0413 H       
 191 H191          25.7442    30.4910    -0.1192 H       
 192 H192          25.7710    30.5585    -1.8976 H       
 193 H193          25.0219    26.8171     0.0326 H       
 194 H194          25.4471    28.2240     1.0366 H       
 195 H195          23.8842    28.1774     0.1860 H       
 196 H196          27.3459    27.4381    -3.3565 H       
 197 H197          26.9802    29.0655    -5.7535 H       
 198 H198          28.2203    26.9217    -5.8750 H       
 199 H199          28.7859    28.8346    -7.4023 H       
 200 H200          30.0579    29.3269    -6.2586 H       
 201 H201          31.1487    27.1155    -6.5201 H       
 202 H202          29.8767    26.6232    -7.6637 H       
 203 H203          30.9947    27.9413    -8.0893 H       
 204 H204          29.1435    26.9613    -3.5739 H       
 205 H205          30.4363    26.7402    -4.7772 H       
 206 H206          30.1903    28.3309    -4.0175 H       
 207 H207          29.5245    31.5663    -4.9039 H       
 208 H208          13.9741    15.0374    -4.0753 H       
@<TRIPOS>BOND
   1    1    2 ar
   2    1    6 ar
   3    1  112 1
   4    2    3 ar
   5    2  113 1
   6    3    4 ar
   7    3    7 1
   8    4    5 ar
   9    4  114 1
  10    5    6 ar
  11    5  115 1
  12    6    8 1
  13    7  116 1
  14    8    9 1
  15    8  117 1
  16    8  118 1
  17    9   10 1
  18    9   11 1
  19    9  119 1
  20   10   12 2
  21   10   13 am
  22   11  120 1
  23   11  121 1
  24   13   14 1
  25   13  122 1
  26   14   15 1
  27   14   18 1
  28   14  123 1
  29   15   16 am
  30   15   17 2
  31   16   24 1
  32   16  124 1
  33   18   19 1
  34   18  125 1
  35   18  126 1
  36   19   22 1
  37   19   21 2
  38   20   21 1
  39   20   23 1
  40   20  127 1
  41   21  128 1
  42   22   23 2
  43   23  129 1
  44   24   25 1
  45   24   26 1
  46   24  130 1
  47   25   36 am
  48   25  109 2
  49   26   27 1
  50   26  131 1
  51   26  132 1
  52   27   28 1
  53   27   31 2
  54   28   32 ar
  55   28   29 ar
  56   29   30 1
  57   29   35 ar
  58   30   31 1
  59   30  133 1
  60   31  134 1
  61   32   33 ar
  62   32  135 1
  63   33   34 ar
  64   33  136 1
  65   34   35 ar
  66   34  137 1
  67   35  138 1
  68   36   37 1
  69   36  139 1
  70   37   38 1
  71   37   39 1
  72   37  140 1
  73   38   47 am
  74   38   48 2
  75   39   40 1
  76   39  141 1
  77   39  142 1
  78   40   43 ar
  79   40   42 ar
  80   41   42 ar
  81   41   45 ar
  82   41  143 1
  83   42  144 1
  84   43   44 ar
  85   43  145 1
  86   44   45 ar
  87   44  146 1
  88   45   46 1
  89   46  147 1
  90   47   49 1
  91   47  148 1
  92   49   50 1
  93   49  149 1
  94   49  150 1
  95   50   51 am
  96   50   52 2
  97   51   53 1
  98   51  151 1
  99   53   54 1
 100   53   57 1
 101   53  152 1
 102   54   55 am
 103   54   56 2
 104   55   64 1
 105   55  153 1
 106   57   58 1
 107   57  154 1
 108   57  155 1
 109   58   61 ar
 110   58   60 ar
 111   59   60 ar
 112   59   63 ar
 113   59  156 1
 114   60  157 1
 115   61   62 ar
 116   61  158 1
 117   62   63 ar
 118   62  159 1
 119   63  110 1
 120   64   65 1
 121   64   66 1
 122   64  160 1
 123   65   69 am
 124   65   70 2
 125   66   67 1
 126   66   68 1
 127   66  161 1
 128   67  162 1
 129   68  163 1
 130   68  164 1
 131   68  165 1
 132   69   72 1
 133   69   71 1
 134   71   74 1
 135   71   75 1
 136   71  166 1
 137   72   73 1
 138   72  167 1
 139   72  168 1
 140   73   74 1
 141   73  169 1
 142   73  170 1
 143   74  171 1
 144   74  172 1
 145   75   76 am
 146   75   77 2
 147   76   78 1
 148   76  173 1
 149   78   79 1
 150   78   80 1
 151   78  174 1
 152   79   85 am
 153   79  111 2
 154   80   81 1
 155   80  175 1
 156   80  176 1
 157   81   82 1
 158   81  177 1
 159   81  178 1
 160   82   83 am
 161   82   84 2
 162   83  179 1
 163   83  180 1
 164   85   86 1
 165   85  181 1
 166   86   87 1
 167   86   88 1
 168   86  182 1
 169   87   92 2
 170   87   93 am
 171   88   89 1
 172   88  183 1
 173   88  184 1
 174   89   90 am
 175   89   91 2
 176   90  185 1
 177   90  186 1
 178   93   94 1
 179   93  187 1
 180   94   95 1
 181   94   96 1
 182   94  188 1
 183   95   99 am
 184   95  100 2
 185   96   97 1
 186   96   98 1
 187   96  189 1
 188   97  190 1
 189   97  191 1
 190   97  192 1
 191   98  193 1
 192   98  194 1
 193   98  195 1
 194   99  101 1
 195   99  196 1
 196  101  102 1
 197  101  103 1
 198  101  197 1
 199  102  107 1
 200  102  108 2
 201  103  104 1
 202  103  106 1
 203  103  198 1
 204  104  105 1
 205  104  199 1
 206  104  200 1
 207  105  201 1
 208  105  202 1
 209  105  203 1
 210  106  204 1
 211  106  205 1
 212  106  206 1
 213  107  207 1
 214  110  208 1

#	End of record

