#	Name: ASD01208746
#	Creating user name:	WinNT
#	Creation time:	15. 06. 2019 19:10

#	Modifying user name:	WinNT
#	Modification time:	15. 06. 2019 19:10

#	Program:	/corina/corina34_cracker 3.40 0067  02.08.2006

@<TRIPOS>MOLECULE
ASD01208746
  59   63    0    0    0
SMALL
NO_CHARGES


@<TRIPOS>ATOM
   1 C1            -0.6243     1.5505    -0.5836 C.2     
   2 C2            -0.3230     0.1097    -0.4478 C.ar    
   3 C3            -1.3546    -0.8025    -0.2215 C.ar    
   4 C4            -1.0679    -2.1517    -0.0954 C.ar    
   5 C5             0.2430    -2.5967    -0.1937 C.ar    
   6 C6             1.2713    -1.6932    -0.4180 C.ar    
   7 C7             0.9928    -0.3427    -0.5512 C.ar    
   8 O8             0.2756     2.3436    -0.7807 O.2     
   9 N9            -1.8972     1.9841    -0.4945 N.am    
  10 S10           -3.7434     4.0244    -0.5308 S.3     
  11 C11           -2.1803     3.3379    -0.6221 C.2     
  12 N12           -1.2976     4.2650    -0.8274 N.2     
  13 C13           -1.7433     5.5036    -0.9233 C.2     
  14 C14           -3.0654     5.6292    -0.7928 C.2     
  15 O15            2.5533    -2.1342    -0.5130 O.3     
  16 C16            4.8915    -1.6988    -0.0842 C.3     
  17 C17            3.5743    -1.1409    -0.6270 C.3     
  18 C18            3.7505    -0.7570    -2.0975 C.3     
  19 O19            5.3251    -2.7828    -0.9081 O.3     
  20 C20            6.5535    -3.3785    -0.4859 C.3     
  21 O21           -2.0715    -3.0409     0.1254 O.3     
  22 C22           -2.8440    -3.4063    -0.9312 C.ar    
  23 C23           -2.5298    -2.9620    -2.2050 C.ar    
  24 C24           -3.3251    -3.3398    -3.2864 C.ar    
  25 C25           -4.4328    -4.1634    -3.0779 C.ar    
  26 C26           -4.7370    -4.6004    -1.8050 C.ar    
  27 C27           -3.9446    -4.2294    -0.7343 C.ar    
  28 O28           -3.6742    -3.1550    -5.7788 O.3     
  29 C29           -2.9965    -2.8693    -4.6491 C.2     
  30 N30           -1.9910    -2.0953    -4.9839 N.2     
  31 N31           -2.0166    -1.8924    -6.2542 N.2     
  32 C32           -3.0311    -2.5237    -6.7760 C.2     
  33 C33           -3.4135    -2.5422    -8.2335 C.3     
  34 C34           -3.7393    -1.2018    -8.8955 C.3     
  35 C35           -2.4314    -1.9220    -9.2295 C.3     
  36 H36           -2.3749    -0.4570    -0.1446 H       
  37 H37            0.4632    -3.6494    -0.0948 H       
  38 H38            1.7935     0.3595    -0.7304 H       
  39 H39           -2.6157     1.3508    -0.3412 H       
  40 H40           -1.0908     6.3472    -1.0936 H       
  41 H41           -3.6225     6.5532    -0.8400 H       
  42 H42            5.6478    -0.9139    -0.0887 H       
  43 H43            4.7428    -2.0542     0.9354 H       
  44 H44            3.2892    -0.2592    -0.0530 H       
  45 H45            2.8121    -0.3595    -2.4842 H       
  46 H46            4.5292     0.0007    -2.1845 H       
  47 H47            4.0356    -1.6386    -2.6716 H       
  48 H48            7.3443    -2.6285    -0.4987 H       
  49 H49            6.4393    -3.7688     0.5254 H       
  50 H50            6.8139    -4.1927    -1.1623 H       
  51 H51           -1.6718    -2.3247    -2.3601 H       
  52 H52           -5.0517    -4.4581    -3.9126 H       
  53 H53           -5.5945    -5.2372    -1.6451 H       
  54 H54           -4.1851    -4.5779     0.2593 H       
  55 H55           -3.9782    -3.4153    -8.5604 H       
  56 H56           -4.5181    -1.1932    -9.6581 H       
  57 H57           -3.6771    -0.3066    -8.2767 H       
  58 H58           -1.5088    -1.5007    -8.8304 H       
  59 H59           -2.3497    -2.3873   -10.2118 H       
@<TRIPOS>BOND
   1    1    2 1
   2    1    8 2
   3    1    9 am
   4    2    3 ar
   5    2    7 ar
   6    3    4 ar
   7    3   36 1
   8    4    5 ar
   9    4   21 1
  10    5    6 ar
  11    5   37 1
  12    6    7 ar
  13    6   15 1
  14    7   38 1
  15    9   11 1
  16    9   39 1
  17   10   11 1
  18   10   14 1
  19   11   12 2
  20   12   13 1
  21   13   14 2
  22   13   40 1
  23   14   41 1
  24   15   17 1
  25   16   17 1
  26   16   19 1
  27   16   42 1
  28   16   43 1
  29   17   18 1
  30   17   44 1
  31   18   45 1
  32   18   46 1
  33   18   47 1
  34   19   20 1
  35   20   48 1
  36   20   49 1
  37   20   50 1
  38   21   22 1
  39   22   23 ar
  40   22   27 ar
  41   23   24 ar
  42   23   51 1
  43   24   25 ar
  44   24   29 1
  45   25   26 ar
  46   25   52 1
  47   26   27 ar
  48   26   53 1
  49   27   54 1
  50   28   29 1
  51   28   32 1
  52   29   30 2
  53   30   31 1
  54   31   32 2
  55   32   33 1
  56   33   34 1
  57   33   35 1
  58   33   55 1
  59   34   35 1
  60   34   56 1
  61   34   57 1
  62   35   58 1
  63   35   59 1

#	End of record

