#	Name: ASD01600001
#	Creating user name:	WinNT
#	Creation time:	15. 06. 2019 19:22

#	Modifying user name:	WinNT
#	Modification time:	15. 06. 2019 19:22

#	Program:	/corina/corina34_cracker 3.40 0067  02.08.2006

@<TRIPOS>MOLECULE
ASD01600001
  62   63    0    0    0
SMALL
NO_CHARGES


@<TRIPOS>ATOM
   1 P1             2.0785     0.0004     2.4649 P.3     
   2 O2             2.4678    -1.3116     3.0283 O.2     
   3 O3             3.3854     0.9284     2.3130 O.3     
   4 O4             1.4027    -0.2154     1.0196 O.3     
   5 O5             1.0239     0.7155     3.4490 O.3     
   6 C6             1.2871     0.9499     4.8339 C.3     
   7 O7            -0.0712     2.9625     4.9203 O.3     
   8 C8             0.0818     1.6438     5.4717 C.3     
   9 C9             0.3112     1.8046     6.9870 C.3     
  10 C10            0.2175     3.3315     7.2250 C.3     
  11 C11           -0.5727     3.8064     5.9790 C.3     
  12 O12           -0.5034     3.6172     8.4254 O.3     
  13 O13           -0.7055     1.1205     7.7221 O.3     
  14 C14            0.7071     5.6890     4.8929 C.2     
  15 N15            0.6632     6.9875     4.8689 N.2     
  16 C16           -0.3624     7.4154     5.6531 C.2     
  17 C17           -0.9732     6.2890     6.1822 C.2     
  18 N18           -0.2886     5.2151     5.6941 N.pl3   
  19 N19           -2.0613     6.2600     7.0364 N.pl3   
  20 C20           -3.2149     5.6191     6.6572 C.2     
  21 N21           -3.3112     5.1078     5.4735 N.2     
  22 C22           -4.5784     4.5218     5.0296 C.3     
  23 C23           -5.1018     5.2942     3.8462 C.2     
  24 C24           -6.4006     4.8901     3.1974 C.3     
  25 C25           -7.5717     5.4313     4.0200 C.3     
  26 C26           -8.8903     5.0211     3.3613 C.3     
  27 O27           -9.9804     5.6229     4.0624 O.3     
  28 P28          -11.5194     5.4072     3.6419 P.3     
  29 O29          -11.6996     5.7803     2.2210 O.2     
  30 O30          -11.9198     3.8611     3.8456 O.3     
  31 O31          -12.4622     6.3316     4.5632 O.3     
  32 O32           -4.4805     6.2369     3.4177 O.2     
  33 O33           -7.5128     4.8944     5.3430 O.3     
  34 O34           -6.4595     5.4271     1.8744 O.3     
  35 C35           -0.7495     8.8088     5.8946 C.2     
  36 N36           -0.0616     9.8101     5.3111 N.am    
  37 O37           -1.6921     9.0612     6.6221 O.2     
  38 H38            3.2046     1.8057     1.9487 H       
  39 H39            1.9825    -0.6424     0.3741 H       
  40 H40            1.4663    -0.0010     5.3357 H       
  41 H41            2.1671     1.5852     4.9341 H       
  42 H42           -0.8215     1.0604     5.2934 H       
  43 H43            1.2983     1.4351     7.2648 H       
  44 H44            1.2094     3.7826     7.2519 H       
  45 H45           -1.6421     3.6504     6.1203 H       
  46 H46           -0.0931     3.2602     9.2250 H       
  47 H47           -0.5670     1.1215     8.6792 H       
  48 H48            1.4195     5.0793     4.3571 H       
  49 H49           -2.0092     6.6924     7.9031 H       
  50 H50           -4.0417     5.5419     7.3477 H       
  51 H51           -4.4174     3.4826     4.7429 H       
  52 H52           -5.3037     4.5664     5.8421 H       
  53 H53           -6.4609     3.8028     3.1512 H       
  54 H54           -7.5114     6.5187     4.0662 H       
  55 H55           -8.8973     5.3546     2.3236 H       
  56 H56           -8.9912     3.9363     3.3950 H       
  57 H57          -11.8259     3.5471     4.7554 H       
  58 H58          -13.4053     6.2525     4.3647 H       
  59 H59           -7.5612     3.9293     5.3783 H       
  60 H60           -6.4111     6.3922     1.8391 H       
  61 H61            0.6896     9.6090     4.7313 H       
  62 H62           -0.3177    10.7320     5.4708 H       
@<TRIPOS>BOND
   1    1    2 2
   2    1    3 1
   3    1    4 1
   4    1    5 1
   5    3   38 1
   6    4   39 1
   7    5    6 1
   8    6    8 1
   9    6   40 1
  10    6   41 1
  11    7    8 1
  12    7   11 1
  13    8    9 1
  14    8   42 1
  15    9   10 1
  16    9   13 1
  17    9   43 1
  18   10   11 1
  19   10   12 1
  20   10   44 1
  21   11   18 1
  22   11   45 1
  23   12   46 1
  24   13   47 1
  25   14   15 2
  26   14   18 1
  27   14   48 1
  28   15   16 1
  29   16   17 2
  30   16   35 1
  31   17   18 1
  32   17   19 1
  33   19   20 1
  34   19   49 1
  35   20   21 2
  36   20   50 1
  37   21   22 1
  38   22   23 1
  39   22   51 1
  40   22   52 1
  41   23   24 1
  42   23   32 2
  43   24   25 1
  44   24   34 1
  45   24   53 1
  46   25   26 1
  47   25   33 1
  48   25   54 1
  49   26   27 1
  50   26   55 1
  51   26   56 1
  52   27   28 1
  53   28   29 2
  54   28   30 1
  55   28   31 1
  56   30   57 1
  57   31   58 1
  58   33   59 1
  59   34   60 1
  60   35   36 am
  61   35   37 2
  62   36   61 1
  63   36   62 1

#	End of record

