#	Name: ASD00170304
#	Creating user name:	WinNT
#	Creation time:	15. 06. 2019 18:31

#	Modifying user name:	WinNT
#	Modification time:	15. 06. 2019 18:31

#	Program:	/corina/corina34_cracker 3.40 0067  02.08.2006

@<TRIPOS>MOLECULE
ASD00170304
  32   34    0    0    0
SMALL
NO_CHARGES


@<TRIPOS>ATOM
   1 S1             0.1575     1.6245     0.6731 S.3     
   2 N2            -0.1176     0.3151    -0.3765 N.pl3   
   3 C3             1.1099    -0.1393    -0.7266 C.2     
   4 N4             2.1487     0.4582    -0.2378 N.2     
   5 C5             1.9247     1.4940     0.5878 C.2     
   6 N6             2.8186     2.2460     1.1981 N.2     
   7 C7            -1.3525    -0.1880    -0.7911 C.ar    
   8 C8             1.2589    -1.2894    -1.6437 C.ar    
   9 C9             4.2477     1.9871     1.0059 C.3     
  10 C10           -2.2253     0.6167    -1.5128 C.ar    
  11 C11           -3.4468     0.1152    -1.9214 C.ar    
  12 C12           -3.8001    -1.1867    -1.6120 C.ar    
  13 C13           -2.9330    -1.9897    -0.8937 C.ar    
  14 C14           -1.7089    -1.4967    -0.4875 C.ar    
  15 C15            0.2902    -1.5401    -2.6166 C.ar    
  16 C16            0.4355    -2.6147    -3.4696 C.ar    
  17 C17            1.5386    -3.4429    -3.3621 C.ar    
  18 C18            2.5025    -3.1999    -2.3998 C.ar    
  19 C19            2.3719    -2.1256    -1.5441 C.ar    
  20 Cl20          -4.5389     1.1194    -2.8228 Cl      
  21 H21            4.4819     0.9763     1.3397 H       
  22 H22            4.4962     2.0876    -0.0507 H       
  23 H23            4.8282     2.7048     1.5855 H       
  24 H24           -1.9498     1.6327    -1.7539 H       
  25 H25           -4.7552    -1.5763    -1.9320 H       
  26 H26           -3.2119    -3.0051    -0.6540 H       
  27 H27           -1.0324    -2.1248     0.0732 H       
  28 H28           -0.5715    -0.8946    -2.7013 H       
  29 H29           -0.3136    -2.8100    -4.2226 H       
  30 H30            1.6474    -4.2830    -4.0320 H       
  31 H31            3.3612    -3.8501    -2.3211 H       
  32 H32            3.1252    -1.9368    -0.7936 H       
@<TRIPOS>BOND
   1    1    2 1
   2    1    5 1
   3    2    3 1
   4    2    7 1
   5    3    4 2
   6    3    8 1
   7    4    5 1
   8    5    6 2
   9    6    9 1
  10    7   10 ar
  11    7   14 ar
  12    8   15 ar
  13    8   19 ar
  14    9   21 1
  15    9   22 1
  16    9   23 1
  17   10   11 ar
  18   10   24 1
  19   11   12 ar
  20   11   20 1
  21   12   13 ar
  22   12   25 1
  23   13   14 ar
  24   13   26 1
  25   14   27 1
  26   15   16 ar
  27   15   28 1
  28   16   17 ar
  29   16   29 1
  30   17   18 ar
  31   17   30 1
  32   18   19 ar
  33   18   31 1
  34   19   32 1

#	End of record

