#	Name: ASD09740516
#	Creating user name:	WinNT
#	Creation time:	15. 06. 2019 21:23

#	Modifying user name:	WinNT
#	Modification time:	15. 06. 2019 21:23

#	Program:	/corina/corina34_cracker 3.40 0067  02.08.2006

@<TRIPOS>MOLECULE
ASD09740516
  48   51    0    0    0
SMALL
NO_CHARGES


@<TRIPOS>ATOM
   1 S1            -0.0213     1.7535     0.0175 S.3     
   2 C2             0.0026    -0.0045    -0.0019 C.2     
   3 C3             1.7356     1.8144    -0.0101 C.2     
   4 C4             2.2342     0.5660    -0.0316 C.2     
   5 C5             1.2767    -0.4416    -0.0271 C.2     
   6 C6             2.5437     3.0531    -0.0101 C.ar    
   7 C7             1.9145     4.2946     0.0135 C.ar    
   8 C8             3.9389     2.9770    -0.0280 C.ar    
   9 C9             4.6974     4.1285    -0.0276 C.ar    
  10 C10            4.0812     5.3710    -0.0091 C.ar    
  11 C11            2.6815     5.4593     0.0138 C.ar    
  12 O12            4.8326     6.5011    -0.0085 O.3     
  13 C13            6.2486     6.3387     0.0937 C.3     
  14 C14            6.8353     6.0914    -1.2975 C.3     
  15 C15            6.8656     7.6056     0.6896 C.3     
  16 C16            2.0424     6.7406     0.0329 C.1     
  17 N17            1.5355     7.7571     0.0481 N.1     
  18 C18            1.6296    -1.8828    -0.0478 C.ar    
  19 C19            1.0558    -2.7554     0.8778 C.ar    
  20 C20            1.3877    -4.0950     0.8540 C.ar    
  21 C21            2.2881    -4.5675    -0.0876 C.ar    
  22 C22            2.8587    -3.7062    -1.0059 C.ar    
  23 C23            2.5291    -2.3663    -0.9947 C.ar    
  24 C24            0.0622    -2.4927     1.9889 C.3     
  25 C25           -0.5072    -3.8792     2.3572 C.3     
  26 C26            0.6402    -4.8271     1.9482 C.3     
  27 O27            0.1127    -6.0582     1.4503 O.3     
  28 H28           -0.8719    -0.6381     0.0057 H       
  29 H29            3.2946     0.3622    -0.0511 H       
  30 H30            0.8364     4.3556     0.0311 H       
  31 H31            4.4250     2.0127    -0.0417 H       
  32 H32            5.7753     4.0627    -0.0415 H       
  33 H33            6.4712     5.4883     0.7383 H       
  34 H34            6.3957     5.1888    -1.7220 H       
  35 H35            6.6127     6.9417    -1.9421 H       
  36 H36            7.9154     5.9675    -1.2196 H       
  37 H37            6.4477     7.7818     1.6807 H       
  38 H38            7.9457     7.4817     0.7675 H       
  39 H39            6.6430     8.4559     0.0450 H       
  40 H40            2.5460    -5.6161    -0.1038 H       
  41 H41            3.5597    -4.0832    -1.7358 H       
  42 H42            2.9746    -1.6929    -1.7119 H       
  43 H43            0.5647    -2.0495     2.8487 H       
  44 H44           -0.7348    -1.8379     1.6366 H       
  45 H45           -0.7023    -3.9462     3.4275 H       
  46 H46           -1.4092    -4.0926     1.7837 H       
  47 H47            1.2984    -5.0125     2.7971 H       
  48 H48           -0.4130    -6.5505     2.0956 H       
@<TRIPOS>BOND
   1    1    2 1
   2    1    3 1
   3    2    5 2
   4    2   28 1
   5    3    4 2
   6    3    6 1
   7    4    5 1
   8    4   29 1
   9    5   18 1
  10    6    7 ar
  11    6    8 ar
  12    7   11 ar
  13    7   30 1
  14    8    9 ar
  15    8   31 1
  16    9   10 ar
  17    9   32 1
  18   10   11 ar
  19   10   12 1
  20   11   16 1
  21   12   13 1
  22   13   14 1
  23   13   15 1
  24   13   33 1
  25   14   34 1
  26   14   35 1
  27   14   36 1
  28   15   37 1
  29   15   38 1
  30   15   39 1
  31   16   17 3
  32   18   19 ar
  33   18   23 ar
  34   19   20 ar
  35   19   24 1
  36   20   21 ar
  37   20   26 1
  38   21   22 ar
  39   21   40 1
  40   22   23 ar
  41   22   41 1
  42   23   42 1
  43   24   25 1
  44   24   43 1
  45   24   44 1
  46   25   26 1
  47   25   45 1
  48   25   46 1
  49   26   27 1
  50   26   47 1
  51   27   48 1

#	End of record

