#	Name: ASD03091867
#	Creating user name:	WinNT
#	Creation time:	15. 06. 2019 20:31

#	Modifying user name:	WinNT
#	Modification time:	15. 06. 2019 20:31

#	Program:	/corina/corina34_cracker 3.40 0067  02.08.2006

@<TRIPOS>MOLECULE
ASD03091867
  55   59    0    0    0
SMALL
NO_CHARGES


@<TRIPOS>ATOM
   1 C1            -0.0150     1.4038     0.0122 C.ar    
   2 C2            -1.2260     2.0727     0.0343 C.ar    
   3 C3            -2.4069     1.3545     0.0345 C.ar    
   4 C4            -2.3902    -0.0308     0.0126 C.ar    
   5 C5            -1.1909    -0.7136    -0.0095 C.ar    
   6 C6             0.0034     0.0001    -0.0096 C.ar    
   7 O7             1.1654     2.0700     0.0167 O.3     
   8 C8             2.2609     1.4540     0.6939 C.3     
   9 N9             2.4081     0.0565     0.2863 N.am    
  10 C10            1.3154    -0.6785    -0.0267 C.2     
  11 C11           -3.6885    -0.7960     0.0134 C.3     
  12 C12           -4.1981    -0.9222    -1.3992 C.ar    
  13 C13           -5.0319     0.0495    -1.9213 C.ar    
  14 C14           -3.8264    -2.0066    -2.1725 C.ar    
  15 C15           -4.2918    -2.1251    -3.4675 C.ar    
  16 C16           -5.1337    -1.1540    -3.9926 C.ar    
  17 C17           -5.5010    -0.0637    -3.2155 C.ar    
  18 O18            1.4105    -1.8565    -0.3124 O.2     
  19 C19            3.7406    -0.5484     0.2167 C.3     
  20 C20            4.5950     0.1758    -0.8441 C.3     
  21 C21            4.4690    -0.3750     1.5610 C.3     
  22 C22            5.7406     0.4485     1.2701 C.3     
  23 C23            5.4062     1.2164    -0.0328 C.3     
  24 O24            4.8244    -1.6526     2.0935 O.3     
  25 C25           -3.7248     2.0849     0.0592 C.3     
  26 N26           -5.6078    -1.2714    -5.3066 N.pl3   
  27 C27           -6.4246    -0.3988    -5.9390 C.2     
  28 C28           -6.6450    -0.8718    -7.1875 C.2     
  29 C29           -5.9403    -2.0729    -7.3238 C.2     
  30 N30           -5.3144    -2.3105    -6.1992 N.2     
  31 H31           -1.2485     3.1523     0.0517 H       
  32 H32           -1.1796    -1.7934    -0.0263 H       
  33 H33            3.1776     1.9945     0.4578 H       
  34 H34            2.0874     1.4972     1.7691 H       
  35 H35           -3.5243    -1.7895     0.4306 H       
  36 H36           -4.4230    -0.2647     0.6185 H       
  37 H37           -5.3170     0.8975    -1.3164 H       
  38 H38           -3.1711    -2.7615    -1.7636 H       
  39 H39           -4.0008    -2.9721    -4.0711 H       
  40 H40           -6.1528     0.6952    -3.6225 H       
  41 H41            3.6574    -1.6071    -0.0291 H       
  42 H42            5.2643    -0.5273    -1.3398 H       
  43 H43            3.9561     0.6744    -1.5731 H       
  44 H44            3.8311     0.1592     2.2651 H       
  45 H45            5.9378     1.1461     2.0841 H       
  46 H46            6.5950    -0.2105     1.1159 H       
  47 H47            6.3175     1.4939    -0.5624 H       
  48 H48            4.7999     2.0963     0.1822 H       
  49 H49            5.2872    -1.6103     2.9415 H       
  50 H50           -4.0527     2.2774    -0.9623 H       
  51 H51           -4.4690     1.4744     0.5707 H       
  52 H52           -3.6060     3.0311     0.5871 H       
  53 H53           -6.8287     0.5120    -5.5223 H       
  54 H54           -7.2572    -0.4050    -7.9449 H       
  55 H55           -5.9144    -2.6949    -8.2063 H       
@<TRIPOS>BOND
   1    1    6 ar
   2    1    7 1
   3    1    2 ar
   4    2    3 ar
   5    2   31 1
   6    3    4 ar
   7    3   25 1
   8    4    5 ar
   9    4   11 1
  10    5    6 ar
  11    5   32 1
  12    6   10 1
  13    7    8 1
  14    8    9 1
  15    8   33 1
  16    8   34 1
  17    9   10 am
  18    9   19 1
  19   10   18 2
  20   11   12 1
  21   11   35 1
  22   11   36 1
  23   12   14 ar
  24   12   13 ar
  25   13   17 ar
  26   13   37 1
  27   14   15 ar
  28   14   38 1
  29   15   16 ar
  30   15   39 1
  31   16   17 ar
  32   16   26 1
  33   17   40 1
  34   19   21 1
  35   19   20 1
  36   19   41 1
  37   20   23 1
  38   20   42 1
  39   20   43 1
  40   21   22 1
  41   21   24 1
  42   21   44 1
  43   22   23 1
  44   22   45 1
  45   22   46 1
  46   23   47 1
  47   23   48 1
  48   24   49 1
  49   25   50 1
  50   25   51 1
  51   25   52 1
  52   26   30 1
  53   26   27 1
  54   27   28 2
  55   27   53 1
  56   28   29 1
  57   28   54 1
  58   29   30 2
  59   29   55 1

#	End of record

