#	Name: ASD03092777
#	Creating user name:	WinNT
#	Creation time:	15. 06. 2019 20:33

#	Modifying user name:	WinNT
#	Modification time:	15. 06. 2019 20:33

#	Program:	/corina/corina34_cracker 3.40 0067  02.08.2006

@<TRIPOS>MOLECULE
ASD03092777
  60   63    0    0    0
SMALL
NO_CHARGES


@<TRIPOS>ATOM
   1 C1             0.6781     1.4921     0.3378 C.3     
   2 C2             0.6007    -0.0347     0.2765 C.3     
   3 C3             0.9696    -0.5011    -1.1082 C.2     
   4 O4             1.2655     0.3084    -1.9624 O.2     
   5 C5             0.9711    -1.9317    -1.4230 C.2     
   6 C6             0.6351    -3.0336    -0.5158 C.2     
   7 C7             0.7728    -4.1762    -1.2357 C.2     
   8 C8             0.5372    -5.5459    -0.7300 C.ar    
   9 C9             0.5784    -5.8039     0.6408 C.ar    
  10 C10            0.3598    -7.0825     1.1036 C.ar    
  11 C11            0.0979    -8.1197     0.2122 C.ar    
  12 O12           -0.1015    -9.3668     0.7138 O.3     
  13 C13           -0.7243   -10.3349    -0.1314 C.3     
  14 C14           -0.6104   -11.7224     0.5032 C.3     
  15 C15           -2.1991    -9.9767    -0.3256 C.3     
  16 C16           -0.0069   -10.3265    -1.4874 C.3     
  17 C17           -0.2355    -8.9627    -2.1435 C.3     
  18 C18            0.0528    -7.8661    -1.1493 C.ar    
  19 C19            0.2672    -6.5845    -1.6203 C.ar    
  20 N20            1.1671    -3.8512    -2.5116 N.pl3   
  21 C21            1.2840    -2.5150    -2.6380 C.2     
  22 C22            1.6898    -1.7805    -3.8897 C.3     
  23 C23            1.4076    -4.7766    -3.5356 C.ar    
  24 C24            2.4919    -5.6399    -3.4524 C.ar    
  25 C25            2.7265    -6.5511    -4.4636 C.ar    
  26 C26            1.8831    -6.6037    -5.5581 C.ar    
  27 C27            0.8024    -5.7453    -5.6438 C.ar    
  28 C28            0.5590    -4.8361    -4.6330 C.ar    
  29 S29            2.1864    -7.7668    -6.8466 S.o2    
  30 N30            1.3680    -9.1530    -6.4582 N.am    
  31 O31            1.5627    -7.2458    -8.0123 O.2     
  32 O32            3.5695    -8.0858    -6.7817 O.2     
  33 H33            1.6929     1.8142     0.1043 H       
  34 H34           -0.0148     1.9204    -0.3865 H       
  35 H35            0.4112     1.8295     1.3393 H       
  36 H36            1.2935    -0.4630     1.0008 H       
  37 H37           -0.4141    -0.3567     0.5100 H       
  38 H38            0.3378    -2.9523     0.5193 H       
  39 H39            0.7814    -5.0034     1.3367 H       
  40 H40            0.3920    -7.2820     2.1646 H       
  41 H41           -1.1048   -11.7193     1.4746 H       
  42 H42           -1.0866   -12.4584    -0.1445 H       
  43 H43            0.4414   -11.9779     0.6316 H       
  44 H44           -2.2761    -8.9918    -0.7862 H       
  45 H45           -2.6709   -10.7176    -0.9711 H       
  46 H46           -2.7007    -9.9656     0.6420 H       
  47 H47            1.0607   -10.4887    -1.3392 H       
  48 H48           -0.4138   -11.1129    -2.1231 H       
  49 H49            0.4279    -8.8575    -3.0020 H       
  50 H50           -1.2712    -8.8886    -2.4750 H       
  51 H51            0.2299    -6.3877    -2.6815 H       
  52 H52            2.7735    -1.6653    -3.9083 H       
  53 H53            1.3697    -2.3476    -4.7638 H       
  54 H54            1.2196    -0.7972    -3.9025 H       
  55 H55            3.1514    -5.5988    -2.5982 H       
  56 H56            3.5697    -7.2228    -4.3995 H       
  57 H57            0.1455    -5.7888    -6.4999 H       
  58 H58           -0.2880    -4.1692    -4.6982 H       
  59 H59            0.8482    -9.1965    -5.6404 H       
  60 H60            1.4083    -9.9216    -7.0486 H       
@<TRIPOS>BOND
   1    1    2 1
   2    1   33 1
   3    1   34 1
   4    1   35 1
   5    2    3 1
   6    2   36 1
   7    2   37 1
   8    3    4 2
   9    3    5 1
  10    5   21 2
  11    5    6 1
  12    6    7 2
  13    6   38 1
  14    7    8 1
  15    7   20 1
  16    8   19 ar
  17    8    9 ar
  18    9   10 ar
  19    9   39 1
  20   10   11 ar
  21   10   40 1
  22   11   18 ar
  23   11   12 1
  24   12   13 1
  25   13   14 1
  26   13   15 1
  27   13   16 1
  28   14   41 1
  29   14   42 1
  30   14   43 1
  31   15   44 1
  32   15   45 1
  33   15   46 1
  34   16   17 1
  35   16   47 1
  36   16   48 1
  37   17   18 1
  38   17   49 1
  39   17   50 1
  40   18   19 ar
  41   19   51 1
  42   20   21 1
  43   20   23 1
  44   21   22 1
  45   22   52 1
  46   22   53 1
  47   22   54 1
  48   23   28 ar
  49   23   24 ar
  50   24   25 ar
  51   24   55 1
  52   25   26 ar
  53   25   56 1
  54   26   27 ar
  55   26   29 1
  56   27   28 ar
  57   27   57 1
  58   28   58 1
  59   29   30 am
  60   29   31 2
  61   29   32 2
  62   30   59 1
  63   30   60 1

#	End of record

