#	Name: ASD05060081
#	Creating user name:	WinNT
#	Creation time:	15. 06. 2019 20:56

#	Modifying user name:	WinNT
#	Modification time:	15. 06. 2019 20:56

#	Program:	/corina/corina34_cracker 3.40 0067  02.08.2006

@<TRIPOS>MOLECULE
ASD05060081
  71   75    0    0    0
SMALL
NO_CHARGES


@<TRIPOS>ATOM
   1 C1            -0.2791     1.2309    -0.1998 C.3     
   2 C2            -0.2365    -0.3004    -0.2812 C.3     
   3 C3             0.4487    -0.6927    -1.5925 C.3     
   4 C4             1.7267     0.0917    -1.7521 C.ar    
   5 C5             1.9639     1.2427    -1.0175 C.ar    
   6 O6             1.0621     1.7148    -0.1179 O.3     
   7 C7             2.6721    -0.3583    -2.6540 C.ar    
   8 C8             3.8634     0.3433    -2.8301 C.ar    
   9 C9             4.0980     1.5033    -2.0918 C.ar    
  10 C10            3.1530     1.9460    -1.1934 C.ar    
  11 C11            2.4144    -1.6121    -3.4493 C.3     
  12 C12            4.8760    -0.1409    -3.7965 C.ar    
  13 C13            5.8881    -1.0352    -3.4019 C.ar    
  14 N14            6.7588    -1.0384    -5.6025 N.ar    
  15 C15            5.8186    -0.2059    -5.9993 C.ar    
  16 C16            4.8544     0.2702    -5.1297 C.ar    
  17 C17            6.2416    -1.6866    -2.1422 C.2     
  18 C18            7.3247    -2.4433    -2.3850 C.2     
  19 N19            7.6890    -2.3256    -3.6994 N.pl3   
  20 C20            6.8311    -1.4715    -4.3503 C.ar    
  21 C21            8.8260    -3.0094    -4.3208 C.3     
  22 C22           10.0262    -2.0981    -4.3118 C.ar    
  23 C23           10.8982    -2.1156    -3.2396 C.ar    
  24 C24           11.9998    -1.2802    -3.2288 C.ar    
  25 C25           12.2305    -0.4257    -4.2924 C.ar    
  26 C26           11.3557    -0.4085    -5.3685 C.ar    
  27 C27           10.2570    -1.2495    -5.3786 C.ar    
  28 F28           13.3064     0.3913    -4.2824 F       
  29 F29           11.5787     0.4252    -6.4079 F       
  30 C30            3.7921     1.2217    -5.6167 C.3     
  31 C31            5.7929     0.2397    -7.4386 C.3     
  32 O32            3.6305     2.2801    -4.6702 O.3     
  33 C33            2.4880     0.4824    -5.7711 C.2     
  34 O34            1.5454     0.7675    -5.0711 O.2     
  35 O35            2.3737    -0.4928    -6.6863 O.3     
  36 C36            3.2199     3.5202    -5.2495 C.3     
  37 C37            1.8738     3.3338    -5.9525 C.3     
  38 C38            3.0793     4.5749    -4.1500 C.3     
  39 C39            4.2669     3.9797    -6.2661 C.3     
  40 H40           -0.7606     1.6327    -1.0912 H       
  41 H41           -0.8342     1.5361     0.6872 H       
  42 H42            0.3287    -0.6977     0.5620 H       
  43 H43           -1.2514    -0.6977    -0.2638 H       
  44 H44            0.6767    -1.7585    -1.5779 H       
  45 H45           -0.2166    -0.4762    -2.4283 H       
  46 H46            5.0183     2.0527    -2.2245 H       
  47 H47            3.3349     2.8443    -0.6221 H       
  48 H48            1.9124    -1.3541    -4.3818 H       
  49 H49            3.3620    -2.1032    -3.6707 H       
  50 H50            1.7824    -2.2859    -2.8708 H       
  51 H51            5.7300    -1.5799    -1.1970 H       
  52 H52            7.8325    -3.0533    -1.6525 H       
  53 H53            9.0543    -3.9165    -3.7613 H       
  54 H54            8.5754    -3.2700    -5.3491 H       
  55 H55           10.7187    -2.7823    -2.4091 H       
  56 H56           12.6800    -1.2943    -2.3900 H       
  57 H57            9.5753    -1.2373    -6.2162 H       
  58 H58            4.0902     1.6374    -6.5792 H       
  59 H59            6.3080     1.1958    -7.5323 H       
  60 H60            6.2930    -0.5046    -8.0584 H       
  61 H61            4.7593     0.3503    -7.7664 H       
  62 H62            1.5177    -0.9385    -6.7484 H       
  63 H63            1.1279     3.0065    -5.2283 H       
  64 H64            1.5606     4.2797    -6.3944 H       
  65 H65            1.9740     2.5824    -6.7358 H       
  66 H66            4.0383     4.7077    -3.6492 H       
  67 H67            2.7661     5.5208    -4.5919 H       
  68 H68            2.3334     4.2475    -3.4258 H       
  69 H69            4.3671     3.2283    -7.0494 H       
  70 H70            3.9537     4.9256    -6.7079 H       
  71 H71            5.2259     4.1124    -5.7653 H       
@<TRIPOS>BOND
   1    1    2 1
   2    1    6 1
   3    1   40 1
   4    1   41 1
   5    2    3 1
   6    2   42 1
   7    2   43 1
   8    3    4 1
   9    3   44 1
  10    3   45 1
  11    4    7 ar
  12    4    5 ar
  13    5    6 1
  14    5   10 ar
  15    7    8 ar
  16    7   11 1
  17    8    9 ar
  18    8   12 1
  19    9   10 ar
  20    9   46 1
  21   10   47 1
  22   11   48 1
  23   11   49 1
  24   11   50 1
  25   12   13 ar
  26   12   16 ar
  27   13   20 ar
  28   13   17 1
  29   14   15 ar
  30   14   20 ar
  31   15   16 ar
  32   15   31 1
  33   16   30 1
  34   17   18 2
  35   17   51 1
  36   18   19 1
  37   18   52 1
  38   19   20 1
  39   19   21 1
  40   21   22 1
  41   21   53 1
  42   21   54 1
  43   22   23 ar
  44   22   27 ar
  45   23   24 ar
  46   23   55 1
  47   24   25 ar
  48   24   56 1
  49   25   26 ar
  50   25   28 1
  51   26   27 ar
  52   26   29 1
  53   27   57 1
  54   30   32 1
  55   30   33 1
  56   30   58 1
  57   31   59 1
  58   31   60 1
  59   31   61 1
  60   32   36 1
  61   33   34 2
  62   33   35 1
  63   35   62 1
  64   36   37 1
  65   36   38 1
  66   36   39 1
  67   37   63 1
  68   37   64 1
  69   37   65 1
  70   38   66 1
  71   38   67 1
  72   38   68 1
  73   39   69 1
  74   39   70 1
  75   39   71 1

#	End of record

