#	Name: ASD01790018
#	Creating user name:	WinNT
#	Creation time:	15. 06. 2019 19:23

#	Modifying user name:	WinNT
#	Modification time:	15. 06. 2019 19:23

#	Program:	/corina/corina34_cracker 3.40 0067  02.08.2006

@<TRIPOS>MOLECULE
ASD01790018
  57   57    0    0    0
SMALL
NO_CHARGES


@<TRIPOS>ATOM
   1 C1            -0.0168     1.3882     0.0097 C.ar    
   2 C2             0.0021    -0.0041     0.0020 C.ar    
   3 C3            -1.1927    -0.7192     0.0096 C.ar    
   4 C4            -2.4010    -0.0484     0.0247 C.ar    
   5 C5            -2.4229     1.3490     0.0324 C.ar    
   6 C6            -1.2221     2.0642     0.0306 C.ar    
   7 O7             1.1520     2.0836     0.0022 O.3     
   8 O8             1.1886    -0.6661    -0.0133 O.3     
   9 O9            -1.1706    -2.0790     0.0016 O.3     
  10 C10           -3.7107     2.0676     0.0485 C.2     
  11 O11           -3.7304     3.4149     0.0560 O.3     
  12 O12           -4.7539     1.4447     0.0551 O.2     
  13 C13           -5.0336     4.0550     0.0718 C.3     
  14 C14           -4.8554     5.5746     0.0783 C.3     
  15 C15           -6.2286     6.2491     0.0949 C.3     
  16 C16           -6.0503     7.7687     0.1014 C.3     
  17 C17           -7.4235     8.4432     0.1181 C.3     
  18 C18           -7.2453     9.9627     0.1246 C.3     
  19 C19           -8.6185    10.6372     0.1412 C.3     
  20 C20           -8.4402    12.1568     0.1477 C.3     
  21 C21           -9.8134    12.8313     0.1644 C.3     
  22 C22           -9.6352    14.3509     0.1709 C.3     
  23 C23          -11.0084    15.0254     0.1875 C.3     
  24 C24          -10.8301    16.5449     0.1940 C.3     
  25 C25          -12.2033    17.2194     0.2107 C.3     
  26 H26           -3.3274    -0.6036     0.0302 H       
  27 H27           -1.2362     3.1441     0.0365 H       
  28 H28            1.4816     2.2894    -0.8832 H       
  29 H29            1.5408    -0.8625     0.8656 H       
  30 H30           -1.1556    -2.4773     0.8827 H       
  31 H31           -5.5947     3.7588    -0.8145 H       
  32 H32           -5.5778     3.7492     0.9654 H       
  33 H33           -4.2943     5.8708     0.9646 H       
  34 H34           -4.3112     5.8804    -0.8153 H       
  35 H35           -6.7897     5.9528    -0.7913 H       
  36 H36           -6.7727     5.9433     0.9885 H       
  37 H37           -5.4892     8.0649     0.9877 H       
  38 H38           -5.5062     8.0745    -0.7922 H       
  39 H39           -7.9846     8.1469    -0.7682 H       
  40 H40           -7.9677     8.1374     1.0117 H       
  41 H41           -6.6842    10.2590     1.0108 H       
  42 H42           -6.7011    10.2685    -0.7690 H       
  43 H43           -9.1796    10.3410    -0.7451 H       
  44 H44           -9.1627    10.3314     1.0348 H       
  45 H45           -7.8791    12.4530     1.0340 H       
  46 H46           -7.8961    12.4626    -0.7459 H       
  47 H47          -10.3745    12.5351    -0.7219 H       
  48 H48          -10.3576    12.5255     1.0580 H       
  49 H49           -9.0741    14.6471     1.0571 H       
  50 H50           -9.0910    14.6567    -0.7227 H       
  51 H51          -11.5695    14.7291    -0.6988 H       
  52 H52          -11.5526    14.7196     1.0811 H       
  53 H53          -10.2690    16.8412     1.0803 H       
  54 H54          -10.2860    16.8507    -0.6996 H       
  55 H55          -12.0763    18.3020     0.2153 H       
  56 H56          -12.7644    16.9232    -0.6756 H       
  57 H57          -12.7475    16.9136     1.1042 H       
@<TRIPOS>BOND
   1    1    2 ar
   2    1    7 1
   3    1    6 ar
   4    2    3 ar
   5    2    8 1
   6    3    4 ar
   7    3    9 1
   8    4    5 ar
   9    4   26 1
  10    5    6 ar
  11    5   10 1
  12    6   27 1
  13    7   28 1
  14    8   29 1
  15    9   30 1
  16   10   11 1
  17   10   12 2
  18   11   13 1
  19   13   14 1
  20   13   31 1
  21   13   32 1
  22   14   15 1
  23   14   33 1
  24   14   34 1
  25   15   16 1
  26   15   35 1
  27   15   36 1
  28   16   17 1
  29   16   37 1
  30   16   38 1
  31   17   18 1
  32   17   39 1
  33   17   40 1
  34   18   19 1
  35   18   41 1
  36   18   42 1
  37   19   20 1
  38   19   43 1
  39   19   44 1
  40   20   21 1
  41   20   45 1
  42   20   46 1
  43   21   22 1
  44   21   47 1
  45   21   48 1
  46   22   23 1
  47   22   49 1
  48   22   50 1
  49   23   24 1
  50   23   51 1
  51   23   52 1
  52   24   25 1
  53   24   53 1
  54   24   54 1
  55   25   55 1
  56   25   56 1
  57   25   57 1

#	End of record

