#	Name: ASD08178039
#	Creating user name:	WinNT
#	Creation time:	15. 06. 2019 21:18

#	Modifying user name:	WinNT
#	Modification time:	15. 06. 2019 21:18

#	Program:	/corina/corina34_cracker 3.40 0067  02.08.2006

@<TRIPOS>MOLECULE
ASD08178039
  63   66    0    0    0
SMALL
NO_CHARGES


@<TRIPOS>ATOM
   1 N1            -0.0155     1.2947     0.0092 N.2     
   2 C2             0.0021    -0.0041     0.0020 C.2     
   3 N3            -1.1168    -0.8300     0.0083 N.am    
   4 N4             1.0945     1.8960     0.0018 N.2     
   5 C5             2.1557     1.1534    -0.0123 C.2     
   6 S6             1.6320    -0.5310    -0.0164 S.3     
   7 C7             3.5816     1.6410    -0.0233 C.3     
   8 C8             4.0782     1.7976     1.4154 C.3     
   9 S9             5.7946     2.3845     1.4021 S.3     
  10 C10            6.1978     2.5063     3.1665 C.3     
  11 C11            7.6379     2.9971     3.3279 C.3     
  12 C12            7.9729     3.0983     4.7937 C.2     
  13 N13            8.4814     2.1601     5.5277 N.2     
  14 N14            8.6902     2.4422     6.7404 N.2     
  15 C15            8.3800     3.6373     7.1435 C.2     
  16 S16            7.7499     4.5182     5.8163 S.3     
  17 N17            8.5385     4.1231     8.4370 N.am    
  18 C18            9.0542     3.3294     9.3965 C.2     
  19 O19            9.3801     2.1915     9.1319 O.2     
  20 C20            9.2260     3.8558    10.7981 C.3     
  21 C21           -2.3521    -0.2911     0.0235 C.2     
  22 O22           -2.4879     0.9140     0.0317 O.2     
  23 C23           -3.5646    -1.1861     0.0302 C.3     
  24 C24           -4.8124    -0.3413     0.0473 C.ar    
  25 C25           -5.3964     0.0530    -1.1420 C.ar    
  26 C26           -5.3762     0.0346     1.2522 C.ar    
  27 C27           -6.5208     0.8095     1.2678 C.ar    
  28 C28           -7.1014     1.2089     0.0786 C.ar    
  29 C29           -6.5410     0.8279    -1.1263 C.ar    
  30 N30            9.3715     2.7353    11.7387 N.am    
  31 C31           10.6932     2.8292    12.3850 C.3     
  32 C32           11.0785     4.3262    12.2842 C.3     
  33 C33           10.5151     4.6995    10.8876 C.3     
  34 C34            8.4490     1.7808    11.9721 C.2     
  35 O35            7.3904     1.8030    11.3806 O.2     
  36 C36            8.7328     0.6860    12.9680 C.3     
  37 F37            7.6348    -0.1781    13.0367 F       
  38 F38            9.8650    -0.0297    12.5642 F       
  39 F39            8.9622     1.2496    14.2278 F       
  40 H40           -1.0082    -1.7939     0.0017 H       
  41 H41            4.2083     0.9194    -0.5474 H       
  42 H42            3.6326     2.6036    -0.5321 H       
  43 H43            3.4515     2.5192     1.9395 H       
  44 H44            4.0272     0.8350     1.9242 H       
  45 H45            5.5181     3.2102     3.6468 H       
  46 H46            6.0938     1.5259     3.6315 H       
  47 H47            8.3176     2.2933     2.8476 H       
  48 H48            7.7419     3.9775     2.8629 H       
  49 H49            8.2779     5.0332     8.6486 H       
  50 H50            8.3634     4.4622    11.0744 H       
  51 H51           -3.5605    -1.8102    -0.8634 H       
  52 H52           -3.5430    -1.8204     0.9164 H       
  53 H53           -4.9583    -0.2441    -2.0833 H       
  54 H54           -4.9226    -0.2775     2.1813 H       
  55 H55           -6.9617     1.1025     2.2092 H       
  56 H56           -7.9959     1.8140     0.0908 H       
  57 H57           -6.9947     1.1399    -2.0554 H       
  58 H58           10.6273     2.5239    13.4293 H       
  59 H59           11.4196     2.2139    11.8541 H       
  60 H60           10.5946     4.9078    13.0689 H       
  61 H61           12.1604     4.4541    12.3160 H       
  62 H62           11.2156     4.4179    10.1013 H       
  63 H63           10.2840     5.7635    10.8367 H       
@<TRIPOS>BOND
   1    1    2 2
   2    1    4 1
   3    2    3 1
   4    2    6 1
   5    3   21 am
   6    3   40 1
   7    4    5 2
   8    5    6 1
   9    5    7 1
  10    7    8 1
  11    7   41 1
  12    7   42 1
  13    8    9 1
  14    8   43 1
  15    8   44 1
  16    9   10 1
  17   10   11 1
  18   10   45 1
  19   10   46 1
  20   11   12 1
  21   11   47 1
  22   11   48 1
  23   12   13 2
  24   12   16 1
  25   13   14 1
  26   14   15 2
  27   15   16 1
  28   15   17 1
  29   17   18 am
  30   17   49 1
  31   18   19 2
  32   18   20 1
  33   20   30 1
  34   20   33 1
  35   20   50 1
  36   21   22 2
  37   21   23 1
  38   23   24 1
  39   23   51 1
  40   23   52 1
  41   24   25 ar
  42   24   26 ar
  43   25   29 ar
  44   25   53 1
  45   26   27 ar
  46   26   54 1
  47   27   28 ar
  48   27   55 1
  49   28   29 ar
  50   28   56 1
  51   29   57 1
  52   30   31 1
  53   30   34 am
  54   31   32 1
  55   31   58 1
  56   31   59 1
  57   32   33 1
  58   32   60 1
  59   32   61 1
  60   33   62 1
  61   33   63 1
  62   34   35 2
  63   34   36 1
  64   36   37 1
  65   36   38 1
  66   36   39 1

#	End of record

