#	Name: ASD04590520
#	Creating user name:	WinNT
#	Creation time:	15. 06. 2019 20:51

#	Modifying user name:	WinNT
#	Modification time:	15. 06. 2019 20:51

#	Program:	/corina/corina34_cracker 3.40 0067  02.08.2006

@<TRIPOS>MOLECULE
ASD04590520
  78   84    0    0    0
SMALL
NO_CHARGES


@<TRIPOS>ATOM
   1 C1            -0.0167     1.3834     0.0096 C.ar    
   2 C2             0.0021    -0.0041     0.0020 C.ar    
   3 C3             2.3948     0.0191    -0.0202 C.ar    
   4 C4             2.3756     1.4249    -0.0129 C.ar    
   5 C5             1.1624     2.0987     0.0022 C.ar    
   6 N6             3.6952    -0.3637    -0.0352 N.2     
   7 C7             4.4664     0.6967    -0.0376 C.2     
   8 N8             3.6970     1.8290    -0.0242 N.pl3   
   9 C9             5.9437     0.6731    -0.0526 C.2     
  10 C10            6.7565    -0.4840    -0.0671 C.2     
  11 C11            8.0504    -0.0800    -0.0778 C.2     
  12 N12            8.0626     1.2789    -0.0705 N.pl3   
  13 N13            6.7358     1.7273    -0.0605 N.2     
  14 N14            6.3043    -1.8134    -0.0698 N.am    
  15 C15            7.1922    -2.8273    -0.0842 C.2     
  16 O16            8.3851    -2.5907    -0.0949 O.2     
  17 C17            1.1863    -0.6848    -0.0125 C.ar    
  18 C18            6.7172    -4.2235    -0.0871 C.2     
  19 N19            5.4605    -4.6243    -0.0771 N.2     
  20 C20           -1.2971    -0.7677     0.0103 C.3     
  21 N21           -1.7325    -1.0083    -1.3719 N.3     
  22 C22           -2.8622    -1.9482    -1.4124 C.3     
  23 C23           -0.6185    -1.4969    -2.1976 C.3     
  24 C24           -1.1001    -1.6771    -3.6397 C.3     
  25 O25           -2.2178    -2.5691    -3.6558 O.3     
  26 C26           -3.3212    -2.1239    -2.8623 C.3     
  27 N27            5.4027    -5.9075    -0.0834 N.pl3   
  28 C28            6.6545    -6.4335    -0.0982 C.2     
  29 C29            7.5257    -5.3896    -0.1073 C.2     
  30 N30            8.9270    -5.4520    -0.1238 N.am    
  31 C31            9.5481    -6.6481    -0.1320 C.2     
  32 C32           11.0129    -6.7134    -0.1493 C.2     
  33 O33            8.8932    -7.6740    -0.1250 O.2     
  34 O34           11.8535    -5.6582    -0.1525 O.3     
  35 C35           11.7653    -7.8530    -0.1590 C.2     
  36 C36           13.1095    -7.4490    -0.1736 C.2     
  37 C37           13.1187    -6.0977    -0.1690 C.2     
  38 C38           14.3496    -5.2284    -0.1805 C.3     
  39 N39           14.7333    -4.9411    -1.5691 N.3     
  40 C40           15.7784    -3.9111    -1.6239 C.3     
  41 C41           16.2549    -3.7423    -3.0684 C.3     
  42 C42           15.0683    -3.3393    -3.9483 C.3     
  43 C43           13.9743    -4.4047    -3.8355 C.3     
  44 C44           13.5640    -4.5542    -2.3688 C.3     
  45 H45           -0.9614     1.9069     0.0169 H       
  46 H46            1.1417     3.1785     0.0079 H       
  47 H47            4.0192     2.7439    -0.0228 H       
  48 H48            8.9175    -0.7237    -0.0901 H       
  49 H49            8.8531     1.8409    -0.0749 H       
  50 H50            5.3528    -2.0021    -0.0613 H       
  51 H51            1.1893    -1.7648    -0.0176 H       
  52 H52           -1.1546    -1.7218     0.5177 H       
  53 H53           -2.0564    -0.1872     0.5345 H       
  54 H54           -2.5486    -2.9117    -1.0106 H       
  55 H55           -3.6848    -1.5545    -0.8153 H       
  56 H56            0.1967    -0.7737    -2.1738 H       
  57 H57           -0.2691    -2.4532    -1.8084 H       
  58 H58           -1.3993    -0.7112    -4.0468 H       
  59 H59           -0.2936    -2.0932    -4.2434 H       
  60 H60           -4.1211    -2.8632    -2.9038 H       
  61 H61           -3.6850    -1.1711    -3.2469 H       
  62 H62            4.5830    -6.4260    -0.0780 H       
  63 H63            6.9098    -7.4828    -0.1062 H       
  64 H64            9.4489    -4.6344    -0.1294 H       
  65 H65           11.3974    -8.8684    -0.1554 H       
  66 H66           13.9739    -8.0964    -0.1835 H       
  67 H67           14.1392    -4.2937     0.3392 H       
  68 H68           15.1658    -5.7477     0.3219 H       
  69 H69           15.3756    -2.9653    -1.2615 H       
  70 H70           16.6181    -4.2119    -0.9974 H       
  71 H71           17.0196    -2.9667    -3.1111 H       
  72 H72           16.6705    -4.6840    -3.4269 H       
  73 H73           14.6769    -2.3784    -3.6142 H       
  74 H74           15.3942    -3.2602    -4.9854 H       
  75 H75           13.1096    -4.1023    -4.4263 H       
  76 H76           14.3540    -5.3568    -4.2061 H       
  77 H77           12.7953    -5.3222    -2.2832 H       
  78 H78           13.1716    -3.6055    -2.0029 H       
@<TRIPOS>BOND
   1    1    2 ar
   2    1    5 ar
   3    1   45 1
   4    2   17 ar
   5    2   20 1
   6    3    4 ar
   7    3    6 1
   8    3   17 ar
   9    4    5 ar
  10    4    8 1
  11    5   46 1
  12    6    7 2
  13    7    8 1
  14    7    9 1
  15    8   47 1
  16    9   10 1
  17    9   13 2
  18   10   11 2
  19   10   14 1
  20   11   12 1
  21   11   48 1
  22   12   13 1
  23   12   49 1
  24   14   15 am
  25   14   50 1
  26   15   16 2
  27   15   18 1
  28   17   51 1
  29   18   19 2
  30   18   29 1
  31   19   27 1
  32   20   21 1
  33   20   52 1
  34   20   53 1
  35   21   22 1
  36   21   23 1
  37   22   26 1
  38   22   54 1
  39   22   55 1
  40   23   24 1
  41   23   56 1
  42   23   57 1
  43   24   25 1
  44   24   58 1
  45   24   59 1
  46   25   26 1
  47   26   60 1
  48   26   61 1
  49   27   28 1
  50   27   62 1
  51   28   29 2
  52   28   63 1
  53   29   30 1
  54   30   31 am
  55   30   64 1
  56   31   32 1
  57   31   33 2
  58   32   35 2
  59   32   34 1
  60   34   37 1
  61   35   36 1
  62   35   65 1
  63   36   37 2
  64   36   66 1
  65   37   38 1
  66   38   39 1
  67   38   67 1
  68   38   68 1
  69   39   40 1
  70   39   44 1
  71   40   41 1
  72   40   69 1
  73   40   70 1
  74   41   42 1
  75   41   71 1
  76   41   72 1
  77   42   43 1
  78   42   73 1
  79   42   74 1
  80   43   44 1
  81   43   75 1
  82   43   76 1
  83   44   77 1
  84   44   78 1

#	End of record

