#	Name: ASD02198425
#	Creating user name:	WinNT
#	Creation time:	15. 06. 2019 20:19

#	Modifying user name:	WinNT
#	Modification time:	15. 06. 2019 20:19

#	Program:	/corina/corina34_cracker 3.40 0067  02.08.2006

@<TRIPOS>MOLECULE
ASD02198425
  44   46    0    0    0
SMALL
NO_CHARGES


@<TRIPOS>ATOM
   1 C1             0.8082    -0.5887     1.3155 C.ar    
   2 S2            -0.0505     0.1023    -0.0592 S.o2    
   3 N3             0.7523    -0.3726    -1.4276 N.am    
   4 C4             2.0337     0.1109    -1.6872 C.ar    
   5 C5             2.4355     0.3791    -3.0149 C.ar    
   6 C6             3.7418     0.8704    -3.2563 C.ar    
   7 C7             4.6170     1.0835    -2.1801 C.ar    
   8 C8             4.2000     0.8134    -0.8960 C.ar    
   9 C9             2.9113     0.3347    -0.6506 C.ar    
  10 N10            1.6019     0.1751    -4.0385 N.ar    
  11 C11            1.9655     0.4204    -5.2738 C.ar    
  12 C12            3.2351     0.9048    -5.5814 C.ar    
  13 C13            4.1365     1.1359    -4.5820 C.ar    
  14 O14           -1.3212    -0.5324    -0.0988 O.2     
  15 O15            0.1122     1.5109     0.0330 O.2     
  16 C16            0.8871    -1.9654     1.4630 C.ar    
  17 C17            1.4078     0.2408     2.2434 C.ar    
  18 C18            2.0840    -0.3030     3.3251 C.ar    
  19 C19            2.1584    -1.6800     3.4754 C.ar    
  20 C20            1.5635    -2.5094     2.5450 C.ar    
  21 O21            5.0495     1.0206     0.1442 O.3     
  22 C22            6.3518     1.5173    -0.1708 C.3     
  23 O23            0.3009    -2.7820     0.5472 O.3     
  24 O24            2.6745     0.5135     4.2381 O.3     
  25 C25            3.3539    -0.1150     5.3269 C.3     
  26 C26            0.4218    -4.1896     0.7617 C.3     
  27 H27            0.3308    -0.9872    -2.0485 H       
  28 H28            5.6143     1.4576    -2.3585 H       
  29 H29            2.6026     0.1291     0.3637 H       
  30 H30            1.2625     0.2421    -6.0741 H       
  31 H31            3.5059     1.0977    -6.6090 H       
  32 H32            5.1250     1.5112    -4.8020 H       
  33 H33            1.3502     1.3129     2.1261 H       
  34 H34            2.6850    -2.1036     4.3179 H       
  35 H35            1.6211    -3.5815     2.6623 H       
  36 H36            6.2616     2.4812    -0.6718 H       
  37 H37            6.9267     1.6374     0.7474 H       
  38 H38            6.8604     0.8123    -0.8283 H       
  39 H39            4.1526    -0.7478     4.9401 H       
  40 H40            3.7786     0.6481     5.9792 H       
  41 H41            2.6488    -0.7245     5.8920 H       
  42 H42           -0.0295    -4.4513     1.7187 H       
  43 H43           -0.0889    -4.7243    -0.0392 H       
  44 H44            1.4759    -4.4668     0.7691 H       
@<TRIPOS>BOND
   1    1    2 1
   2    1   16 ar
   3    1   17 ar
   4    2    3 am
   5    2   14 2
   6    2   15 2
   7    3    4 1
   8    3   27 1
   9    4    5 ar
  10    4    9 ar
  11    5    6 ar
  12    5   10 ar
  13    6    7 ar
  14    6   13 ar
  15    7    8 ar
  16    7   28 1
  17    8    9 ar
  18    8   21 1
  19    9   29 1
  20   10   11 ar
  21   11   12 ar
  22   11   30 1
  23   12   13 ar
  24   12   31 1
  25   13   32 1
  26   16   23 1
  27   16   20 ar
  28   17   18 ar
  29   17   33 1
  30   18   19 ar
  31   18   24 1
  32   19   20 ar
  33   19   34 1
  34   20   35 1
  35   21   22 1
  36   22   36 1
  37   22   37 1
  38   22   38 1
  39   23   26 1
  40   24   25 1
  41   25   39 1
  42   25   40 1
  43   25   41 1
  44   26   42 1
  45   26   43 1
  46   26   44 1

#	End of record

