#	Name: ASD04880051
#	Creating user name:	WinNT
#	Creation time:	15. 06. 2019 20:52

#	Modifying user name:	WinNT
#	Modification time:	15. 06. 2019 20:52

#	Program:	/corina/corina34_cracker 3.40 0067  02.08.2006

@<TRIPOS>MOLECULE
ASD04880051
  47   50    0    0    0
SMALL
NO_CHARGES


@<TRIPOS>ATOM
   1 C1            -0.0144     1.2121     0.0087 C.2     
   2 O2             0.0480    -0.0024     0.0315 O.2     
   3 N3             1.1158     1.9440    -0.0485 N.am    
   4 N4             1.1784     3.3286    -0.1916 N.2     
   5 C5             2.3768     3.8012    -0.2202 C.2     
   6 C6             3.3696     2.6688    -0.0853 C.3     
   7 C7             2.4852     1.4120     0.0363 C.3     
   8 C8             2.7261     5.2263    -0.3626 C.ar    
   9 C9             1.7173     6.1866    -0.4793 C.ar    
  10 C10            2.0504     7.5211    -0.6126 C.ar    
  11 C11            3.3894     7.9068    -0.6308 C.ar    
  12 C12            4.3907     6.9542    -0.5150 C.ar    
  13 C13            4.0660     5.6209    -0.3754 C.ar    
  14 O14            3.7149     9.2200    -0.7629 O.3     
  15 C15            5.1063     9.5456    -0.7739 C.3     
  16 O16            1.0713     8.4581    -0.7264 O.3     
  17 C17           -0.2792     7.9917    -0.7005 C.3     
  18 O18           -4.9977     3.7885     0.1259 O.3     
  19 C19           -6.1317     3.0505    -0.3417 C.3     
  20 C20           -6.0855     1.6502     0.2844 C.3     
  21 O21           -4.8660     1.0187    -0.1204 O.3     
  22 C22           -3.7308     1.7646    -0.0270 C.ar    
  23 C23           -3.7971     3.1508     0.0936 C.ar    
  24 C24           -2.5019     1.1319    -0.0542 C.ar    
  25 C25           -1.3278     1.8840     0.0375 C.ar    
  26 C26           -1.4013     3.2739     0.1562 C.ar    
  27 C27           -2.6290     3.8982     0.1836 C.ar    
  28 H28            4.0046     2.6096    -0.9693 H       
  29 H29            3.9740     2.7952     0.8129 H       
  30 H30            2.6464     0.9187     0.9948 H       
  31 H31            2.6818     0.7257    -0.7874 H       
  32 H32            0.6800     5.8863    -0.4658 H       
  33 H33            5.4272     7.2575    -0.5300 H       
  34 H34            4.8477     4.8817    -0.2809 H       
  35 H35            5.5622     9.2235     0.1623 H       
  36 H36            5.5915     9.0382    -1.6078 H       
  37 H37            5.2264    10.6232    -0.8848 H       
  38 H38           -0.9580     8.8387    -0.7999 H       
  39 H39           -0.4401     7.2983    -1.5259 H       
  40 H40           -0.4696     7.4824     0.2443 H       
  41 H41           -7.0490     3.5572    -0.0418 H       
  42 H42           -6.0946     2.9689    -1.4280 H       
  43 H43           -6.1141     1.7321     1.3710 H       
  44 H44           -6.9361     1.0638    -0.0631 H       
  45 H45           -2.4494     0.0571    -0.1460 H       
  46 H46           -0.4960     3.8588     0.2260 H       
  47 H47           -2.6838     4.9729     0.2751 H       
@<TRIPOS>BOND
   1    1    2 2
   2    1    3 am
   3    1   25 1
   4    3    4 1
   5    3    7 1
   6    4    5 2
   7    5    6 1
   8    5    8 1
   9    6    7 1
  10    6   28 1
  11    6   29 1
  12    7   30 1
  13    7   31 1
  14    8    9 ar
  15    8   13 ar
  16    9   10 ar
  17    9   32 1
  18   10   11 ar
  19   10   16 1
  20   11   12 ar
  21   11   14 1
  22   12   13 ar
  23   12   33 1
  24   13   34 1
  25   14   15 1
  26   15   35 1
  27   15   36 1
  28   15   37 1
  29   16   17 1
  30   17   38 1
  31   17   39 1
  32   17   40 1
  33   18   19 1
  34   18   23 1
  35   19   20 1
  36   19   41 1
  37   19   42 1
  38   20   21 1
  39   20   43 1
  40   20   44 1
  41   21   22 1
  42   22   23 ar
  43   22   24 ar
  44   23   27 ar
  45   24   25 ar
  46   24   45 1
  47   25   26 ar
  48   26   27 ar
  49   26   46 1
  50   27   47 1

#	End of record

