#	Name: ASD03090026
#	Creating user name:	WinNT
#	Creation time:	15. 06. 2019 20:28

#	Modifying user name:	WinNT
#	Modification time:	15. 06. 2019 20:28

#	Program:	/corina/corina34_cracker 3.40 0067  02.08.2006

@<TRIPOS>MOLECULE
ASD03090026
  47   49    0    0    0
SMALL
NO_CHARGES


@<TRIPOS>ATOM
   1 N1            -0.0181     1.4829     0.0102 N.4     
   2 C2            -0.0010     0.0075     0.1958 C.3     
   3 C3             0.9808    -0.2966     1.3387 C.3     
   4 C4             0.4425     0.3214     2.6323 C.3     
   5 C5             0.1629     1.8114     2.4162 C.3     
   6 C6            -0.7635     1.9726     1.2003 C.3     
   7 C7            -1.9292     0.9692     1.3576 C.3     
   8 C8            -1.4254    -0.3293     0.6939 C.3     
   9 C9             1.3496     2.0189     0.0000 C.3     
  10 C10           -0.7225     1.8404    -1.2284 C.3     
  11 C11           -0.5064     2.3820     3.6398 C.2     
  12 O12            0.1176     2.3396     4.8275 O.3     
  13 C13           -0.5866     2.9080     5.9629 C.3     
  14 O14           -1.6047     2.8778     3.5519 O.2     
  15 O15           -0.7871    -0.3505     3.0132 O.3     
  16 C16           -0.6727    -1.4265     3.8156 C.2     
  17 C17           -1.8813    -2.1601     4.2440 C.ar    
  18 C18           -1.7664    -3.2759     5.0756 C.ar    
  19 C19           -2.8990    -3.9560     5.4723 C.ar    
  20 C20           -4.1469    -3.5352     5.0475 C.ar    
  21 C21           -4.2679    -2.4304     4.2234 C.ar    
  22 C22           -3.1440    -1.7375     3.8238 C.ar    
  23 O23            0.4241    -1.7935     4.1868 O.2     
  24 H24            0.2497    -0.5210    -0.7240 H       
  25 H25            1.0755    -1.3755     1.4613 H       
  26 H26            1.9553     0.1332     1.1068 H       
  27 H27            1.1806     0.2023     3.4255 H       
  28 H28            1.1006     2.3359     2.2327 H       
  29 H29           -1.1060     3.0002     1.0784 H       
  30 H30           -2.1424     0.7979     2.4128 H       
  31 H31           -2.8181     1.3370     0.8451 H       
  32 H32           -2.0665    -0.5999    -0.1451 H       
  33 H33           -1.3908    -1.1391     1.4226 H       
  34 H34            1.8949     1.6071    -0.8493 H       
  35 H35            1.3136     3.1051    -0.0834 H       
  36 H36            1.8552     1.7420     0.9251 H       
  37 H37           -1.7421     1.4569    -1.1901 H       
  38 H38           -0.7459     2.9251    -1.3329 H       
  39 H39           -0.2021     1.4043    -2.0811 H       
  40 H40           -1.5287     2.3792     6.1080 H       
  41 H41            0.0273     2.8088     6.8581 H       
  42 H42           -0.7873     3.9628     5.7750 H       
  43 H43           -0.7930    -3.6058     5.4073 H       
  44 H44           -2.8116    -4.8192     6.1155 H       
  45 H45           -5.0304    -4.0718     5.3605 H       
  46 H46           -5.2449    -2.1072     3.8955 H       
  47 H47           -3.2399    -0.8751     3.1808 H       
@<TRIPOS>BOND
   1    1    2 1
   2    1    9 1
   3    1   10 1
   4    1    6 1
   5    2    8 1
   6    2    3 1
   7    2   24 1
   8    3    4 1
   9    3   25 1
  10    3   26 1
  11    4    5 1
  12    4   15 1
  13    4   27 1
  14    5    6 1
  15    5   11 1
  16    5   28 1
  17    6    7 1
  18    6   29 1
  19    7    8 1
  20    7   30 1
  21    7   31 1
  22    8   32 1
  23    8   33 1
  24    9   34 1
  25    9   35 1
  26    9   36 1
  27   10   37 1
  28   10   38 1
  29   10   39 1
  30   11   12 1
  31   11   14 2
  32   12   13 1
  33   13   40 1
  34   13   41 1
  35   13   42 1
  36   15   16 1
  37   16   17 1
  38   16   23 2
  39   17   18 ar
  40   17   22 ar
  41   18   19 ar
  42   18   43 1
  43   19   20 ar
  44   19   44 1
  45   20   21 ar
  46   20   45 1
  47   21   22 ar
  48   21   46 1
  49   22   47 1

#	End of record

