#	Name: ASD01915802
#	Creating user name:	WinNT
#	Creation time:	15. 06. 2019 20:06

#	Modifying user name:	WinNT
#	Modification time:	15. 06. 2019 20:06

#	Program:	/corina/corina34_cracker 3.40 0067  02.08.2006

@<TRIPOS>MOLECULE
ASD01915802
  34   35    0    0    0
SMALL
NO_CHARGES


@<TRIPOS>ATOM
   1 C1            -0.0184     1.5028     0.0103 C.3     
   2 C2             0.0548    -9.3153    -5.0067 C.3     
   3 C3             0.0412    -2.0806     1.1930 C.ar    
   4 C4             0.7007    -3.7701    -7.1657 C.3     
   5 C5             0.0228    -0.6926     1.2025 C.ar    
   6 C6            -0.0178    -3.0127    -6.0458 C.3     
   7 C7             0.0380    -2.7335    -0.0265 C.ar    
   8 C8             0.0154    -5.1249    -7.3683 C.3     
   9 C9             0.0093    -3.1763    -3.5147 C.1     
  10 C10            0.0126    -2.6356    -2.4726 C.1     
  11 C11            0.0219    -5.1849    -4.8330 C.2     
  12 C12            0.0021    -0.0041     0.0020 C.ar    
  13 C13            0.0053    -3.8358    -4.7858 C.2     
  14 C14            0.0166    -1.9761    -1.2015 C.ar    
  15 C15            0.0242    -5.8810    -6.0645 C.2     
  16 N16           -0.0005    -0.6466    -1.1468 N.ar    
  17 N17            0.0350    -7.1802    -6.0718 N.2     
  18 O18            0.0433    -7.8950    -4.8494 O.3     
  19 H19            1.0042     1.8801     0.0026 H       
  20 H20           -0.5455     1.8639    -0.8728 H       
  21 H21           -0.5286     1.8543     0.9071 H       
  22 H22           -0.8337    -9.6272    -5.5557 H       
  23 H23            0.9462    -9.6124    -5.5591 H       
  24 H24            0.0607    -9.7895    -4.0253 H       
  25 H25            0.0619    -2.6385     2.1175 H       
  26 H26            0.6482    -3.1928    -8.0887 H       
  27 H27            1.7435    -3.9265    -6.8898 H       
  28 H28            0.0244    -0.1544     2.1389 H       
  29 H29            0.4866    -2.0628    -5.8683 H       
  30 H30           -1.0510    -2.8258    -6.3386 H       
  31 H31            0.0523    -3.8125    -0.0703 H       
  32 H32           -1.0139    -4.9682    -7.6910 H       
  33 H33            0.5532    -5.6959    -8.1251 H       
  34 H34            0.0340    -5.7453    -3.9098 H       
@<TRIPOS>BOND
   1    1   12 1
   2    1   19 1
   3    1   20 1
   4    1   21 1
   5    2   18 1
   6    2   22 1
   7    2   23 1
   8    2   24 1
   9    3    5 ar
  10    3    7 ar
  11    3   25 1
  12    4    6 1
  13    4    8 1
  14    4   26 1
  15    4   27 1
  16    5   12 ar
  17    5   28 1
  18    6   13 1
  19    6   29 1
  20    6   30 1
  21    7   14 ar
  22    7   31 1
  23    8   15 1
  24    8   32 1
  25    8   33 1
  26    9   10 3
  27    9   13 1
  28   10   14 1
  29   11   13 2
  30   11   15 1
  31   11   34 1
  32   12   16 ar
  33   14   16 ar
  34   15   17 2
  35   17   18 1

#	End of record

