#	Name: ASD01911329
#	Creating user name:	WinNT
#	Creation time:	15. 06. 2019 19:57

#	Modifying user name:	WinNT
#	Modification time:	15. 06. 2019 19:57

#	Program:	/corina/corina34_cracker 3.40 0067  02.08.2006

@<TRIPOS>MOLECULE
ASD01911329
  38   40    0    0    0
SMALL
NO_CHARGES


@<TRIPOS>ATOM
   1 C1            -0.0167     1.3837     0.0096 C.ar    
   2 C2             0.0021    -0.0041     0.0020 C.ar    
   3 C3            -1.2096    -0.6810     0.0104 C.ar    
   4 C4            -2.3940     0.0533     0.0292 C.ar    
   5 N5            -2.3667     1.3756     0.0345 N.ar    
   6 C6            -1.2289     2.0445     0.0306 C.ar    
   7 O7            -1.2262    -2.0385    -0.0042 O.3     
   8 C8            -2.4189    -2.6935     0.4356 C.3     
   9 C9            -3.6219    -2.0573    -0.2751 C.3     
  10 N10           -3.6227    -0.6204     0.0469 N.am    
  11 C11            1.2737     2.1620     0.0015 C.3     
  12 O12            1.6687     2.4152    -1.3483 O.3     
  13 C13            2.8207     3.1120    -1.5336 C.ar    
  14 C14            3.2636     3.3933    -2.8179 C.ar    
  15 C15            4.4350     4.1017    -3.0036 C.ar    
  16 C16            5.1658     4.5302    -1.9109 C.ar    
  17 C17            4.7268     4.2506    -0.6299 C.ar    
  18 C18            3.5529     3.5479    -0.4388 C.ar    
  19 C19           -4.7667     0.0251     0.3485 C.2     
  20 O20           -4.7415     1.3395     0.6394 O.3     
  21 C21           -6.0112     1.9694     0.9547 C.3     
  22 O22           -5.8209    -0.5790     0.3578 O.2     
  23 H23            0.9372    -0.5443    -0.0105 H       
  24 H24           -1.2464     3.1243     0.0356 H       
  25 H25           -2.3664    -3.7535     0.1874 H       
  26 H26           -2.5257    -2.5731     1.5136 H       
  27 H27           -3.5297    -2.1946    -1.3525 H       
  28 H28           -4.5452    -2.5159     0.0789 H       
  29 H29            1.1302     3.1090     0.5218 H       
  30 H30            2.0493     1.5848     0.5049 H       
  31 H31            2.6933     3.0585    -3.6717 H       
  32 H32            4.7804     4.3207    -4.0032 H       
  33 H33            6.0814     5.0838    -2.0581 H       
  34 H34            5.2998     4.5858     0.2220 H       
  35 H35            3.2103     3.3299     0.5620 H       
  36 H36           -6.6867     1.8705     0.1051 H       
  37 H37           -6.4505     1.4848     1.8266 H       
  38 H38           -5.8494     3.0258     1.1692 H       
@<TRIPOS>BOND
   1    1    2 ar
   2    1   11 1
   3    1    6 ar
   4    2    3 ar
   5    2   23 1
   6    3    4 ar
   7    3    7 1
   8    4    5 ar
   9    4   10 1
  10    5    6 ar
  11    6   24 1
  12    7    8 1
  13    8    9 1
  14    8   25 1
  15    8   26 1
  16    9   10 1
  17    9   27 1
  18    9   28 1
  19   10   19 am
  20   11   12 1
  21   11   29 1
  22   11   30 1
  23   12   13 1
  24   13   14 ar
  25   13   18 ar
  26   14   15 ar
  27   14   31 1
  28   15   16 ar
  29   15   32 1
  30   16   17 ar
  31   16   33 1
  32   17   18 ar
  33   17   34 1
  34   18   35 1
  35   19   20 1
  36   19   22 2
  37   20   21 1
  38   21   36 1
  39   21   37 1
  40   21   38 1

#	End of record

