#	Name: ASD01028206
#	Creating user name:	WinNT
#	Creation time:	15. 06. 2019 18:56

#	Modifying user name:	WinNT
#	Modification time:	15. 06. 2019 18:56

#	Program:	/corina/corina34_cracker 3.40 0067  02.08.2006

@<TRIPOS>MOLECULE
ASD01028206
  66   71    0    0    0
SMALL
NO_CHARGES


@<TRIPOS>ATOM
   1 C1            -0.0166     1.3719     0.0096 C.ar    
   2 C2             0.0021    -0.0041     0.0020 C.ar    
   3 C3             1.1750     2.1035     0.0021 C.ar    
   4 C4             2.3797     1.4715    -0.0128 C.ar    
   5 C5             2.4326     0.0695    -0.0208 C.ar    
   6 C6             1.2322    -0.6815    -0.0134 C.ar    
   7 C7             3.6676    -0.6170    -0.0367 C.ar    
   8 C8             3.6411    -2.0003    -0.0444 C.ar    
   9 C9             2.4221    -2.6660    -0.0364 C.ar    
  10 N10            1.2804    -2.0188    -0.0211 N.ar    
  11 O11            4.8427     0.0593    -0.0447 O.3     
  12 C12            6.0400    -0.7207    -0.0607 C.3     
  13 C13            7.2364     0.1957    -0.0676 C.2     
  14 N14            7.8801     0.6745     1.0192 N.pl3   
  15 C15            8.8999     1.4617     0.5399 C.2     
  16 N16            8.8258     1.4222    -0.7805 N.2     
  17 N17            7.8431     0.6669    -1.1286 N.2     
  18 N18            7.7018     0.5210     2.3955 N.2     
  19 C19            8.5047     1.1257     3.2434 C.2     
  20 C20            9.5607     1.9405     2.7822 C.2     
  21 C21            9.7594     2.1082     1.4484 C.2     
  22 C22            8.2977     0.9498     4.7013 C.ar    
  23 C23            7.2572     0.1475     5.1672 C.ar    
  24 C24            9.1469     1.5820     5.6084 C.ar    
  25 C25            8.9528     1.4173     6.9638 C.ar    
  26 C26            7.9133     0.6225     7.4264 C.ar    
  27 C27            7.0674    -0.0140     6.5252 C.ar    
  28 O28           -1.2065     2.0271     0.0188 O.3     
  29 C29           -1.1606     3.4553     0.0263 C.3     
  30 F30            6.0563    -0.7870     6.9784 F       
  31 O31            7.7255     0.4616     8.7627 O.3     
  32 C32            8.6349     1.1394     9.6320 C.3     
  33 C33            8.2679     0.8410    11.0870 C.3     
  34 N34            8.4642    -0.5893    11.3581 N.3     
  35 C35            8.3518    -0.8733    12.7962 C.3     
  36 C36            8.5031    -2.3792    13.0268 C.3     
  37 O37            9.7521    -2.8164    12.4846 O.3     
  38 C38            9.8951    -2.5561    11.0856 C.3     
  39 C39            9.7580    -1.0519    10.8353 C.3     
  40 H40           -0.9239    -0.5598     0.0082 H       
  41 H41            1.1387     3.1829     0.0079 H       
  42 H42            3.2932     2.0476    -0.0188 H       
  43 H43            4.5646    -2.5602    -0.0569 H       
  44 H44            2.4134    -3.7460    -0.0425 H       
  45 H45            6.0728    -1.3543     0.8256 H       
  46 H46            6.0552    -1.3447    -0.9543 H       
  47 H47           10.2123     2.4309     3.4903 H       
  48 H48           10.5659     2.7307     1.0897 H       
  49 H49            6.6002    -0.3468     4.4668 H       
  50 H50            9.9566     2.2002     5.2498 H       
  51 H51            9.6109     1.9072     7.6663 H       
  52 H52           -2.1761     3.8514     0.0333 H       
  53 H53           -0.6312     3.7971     0.9157 H       
  54 H54           -0.6396     3.8068    -0.8642 H       
  55 H55            9.6502     0.7951     9.4354 H       
  56 H56            8.5747     2.2132     9.4549 H       
  57 H57            8.9045     1.4271    11.7498 H       
  58 H58            7.2242     1.1036    11.2597 H       
  59 H59            9.1367    -0.3420    13.3345 H       
  60 H60            7.3767    -0.5460    13.1567 H       
  61 H61            8.4776    -2.5880    14.0963 H       
  62 H62            7.6872    -2.9069    12.5328 H       
  63 H63           10.8764    -2.8927    10.7512 H       
  64 H64            9.1198    -3.0888    10.5351 H       
  65 H65            9.8093    -0.8550     9.7645 H       
  66 H66           10.5654    -0.5235    11.3423 H       
@<TRIPOS>BOND
   1    1    2 ar
   2    1    3 ar
   3    1   28 1
   4    2    6 ar
   5    2   40 1
   6    3    4 ar
   7    3   41 1
   8    4    5 ar
   9    4   42 1
  10    5    6 ar
  11    5    7 ar
  12    6   10 ar
  13    7    8 ar
  14    7   11 1
  15    8    9 ar
  16    8   43 1
  17    9   10 ar
  18    9   44 1
  19   11   12 1
  20   12   13 1
  21   12   45 1
  22   12   46 1
  23   13   14 1
  24   13   17 2
  25   14   15 1
  26   14   18 1
  27   15   16 2
  28   15   21 1
  29   16   17 1
  30   18   19 2
  31   19   20 1
  32   19   22 1
  33   20   21 2
  34   20   47 1
  35   21   48 1
  36   22   23 ar
  37   22   24 ar
  38   23   27 ar
  39   23   49 1
  40   24   25 ar
  41   24   50 1
  42   25   26 ar
  43   25   51 1
  44   26   27 ar
  45   26   31 1
  46   27   30 1
  47   28   29 1
  48   29   52 1
  49   29   53 1
  50   29   54 1
  51   31   32 1
  52   32   33 1
  53   32   55 1
  54   32   56 1
  55   33   34 1
  56   33   57 1
  57   33   58 1
  58   34   35 1
  59   34   39 1
  60   35   36 1
  61   35   59 1
  62   35   60 1
  63   36   37 1
  64   36   61 1
  65   36   62 1
  66   37   38 1
  67   38   39 1
  68   38   63 1
  69   38   64 1
  70   39   65 1
  71   39   66 1

#	End of record

