#	Name: ASD01670034
#	Creating user name:	WinNT
#	Creation time:	15. 06. 2019 19:22

#	Modifying user name:	WinNT
#	Modification time:	15. 06. 2019 19:22

#	Program:	/corina/corina34_cracker 3.40 0067  02.08.2006

@<TRIPOS>MOLECULE
ASD01670034
  59   62    0    0    0
SMALL
NO_CHARGES


@<TRIPOS>ATOM
   1 C1             0.9983    -0.4397    -0.4897 C.ar    
   2 C2            -0.1486     0.1825     0.0129 C.ar    
   3 C3            -0.0977     1.4999     0.4130 C.ar    
   4 C4             1.0851     2.2145     0.3207 C.ar    
   5 C5             2.2299     1.6132    -0.1748 C.ar    
   6 C6             2.1943     0.2825    -0.5833 C.ar    
   7 O7             3.4322    -0.0722    -1.0268 O.3     
   8 C8             4.3286     0.9276    -0.5071 C.3     
   9 O9             3.4947     2.0923    -0.3624 O.3     
  10 C10           -1.4399    -0.5873     0.1164 C.3     
  11 C11           -2.1306    -0.6108    -1.2487 C.3     
  12 C12           -3.4052    -1.4792    -1.1892 C.3     
  13 N13           -3.3006    -2.4857    -0.1298 N.am    
  14 C14           -3.9164    -3.6764    -0.2685 C.2     
  15 O15           -4.5572    -3.9148    -1.2703 O.2     
  16 C16           -3.8089    -4.7118     0.8213 C.3     
  17 C17           -4.5930    -5.9616     0.4165 C.3     
  18 C18           -4.4838    -7.0128     1.5229 C.3     
  19 C19           -5.2680    -8.2626     1.1181 C.3     
  20 C20           -5.1588    -9.3138     2.2245 C.3     
  21 N21           -5.9116   -10.5138     1.8359 N.3     
  22 C22           -4.4976    -0.4415    -0.8543 C.3     
  23 C23           -3.9728     0.8732    -1.3905 C.ar    
  24 C24           -2.6129     0.7759    -1.6172 C.ar    
  25 C25           -1.9168     1.8661    -2.1121 C.ar    
  26 C26           -2.5770     3.0493    -2.3794 C.ar    
  27 C27           -3.9373     3.1466    -2.1525 C.ar    
  28 C28           -4.6332     2.0606    -1.6592 C.ar    
  29 C29            0.9501    -1.8508    -0.9134 C.2     
  30 O30            0.6200    -2.1336    -2.0481 O.2     
  31 O31            1.2720    -2.8272    -0.0422 O.3     
  32 H32           -0.9852     1.9781     0.8004 H       
  33 H33            1.1147     3.2468     0.6366 H       
  34 H34            4.7268     0.6197     0.4597 H       
  35 H35            5.1374     1.1204    -1.2119 H       
  36 H36           -1.2297    -1.6084     0.4348 H       
  37 H37           -2.0922    -0.1065     0.8453 H       
  38 H38           -1.4493    -0.9906    -2.0101 H       
  39 H39           -3.5975    -1.9516    -2.1526 H       
  40 H40           -2.7882    -2.2950     0.6714 H       
  41 H41           -2.7615    -4.9730     0.9722 H       
  42 H42           -4.2199    -4.3090     1.7470 H       
  43 H43           -5.6404    -5.7004     0.2656 H       
  44 H44           -4.1820    -6.3645    -0.5092 H       
  45 H45           -3.4364    -7.2740     1.6738 H       
  46 H46           -4.8949    -6.6100     2.4486 H       
  47 H47           -6.3154    -8.0014     0.9672 H       
  48 H48           -4.8569    -8.6655     0.1924 H       
  49 H49           -4.1114    -9.5750     2.3754 H       
  50 H50           -5.5698    -8.9110     3.1502 H       
  51 H51           -5.5919   -10.8693     0.9473 H       
  52 H52           -5.8550   -11.2235     2.5508 H       
  53 H53           -5.4332    -0.7047    -1.3477 H       
  54 H54           -4.6423    -0.3794     0.2242 H       
  55 H55           -0.8540     1.7909    -2.2892 H       
  56 H56           -2.0312     3.8977    -2.7649 H       
  57 H57           -4.4552     4.0713    -2.3605 H       
  58 H58           -5.6959     2.1374    -1.4823 H       
  59 H59            1.2986    -3.7307    -0.3857 H       
@<TRIPOS>BOND
   1    1    2 ar
   2    1    6 ar
   3    1   29 1
   4    2    3 ar
   5    2   10 1
   6    3    4 ar
   7    3   32 1
   8    4    5 ar
   9    4   33 1
  10    5    6 ar
  11    5    9 1
  12    6    7 1
  13    7    8 1
  14    8    9 1
  15    8   34 1
  16    8   35 1
  17   10   11 1
  18   10   36 1
  19   10   37 1
  20   11   12 1
  21   11   24 1
  22   11   38 1
  23   12   13 1
  24   12   22 1
  25   12   39 1
  26   13   14 am
  27   13   40 1
  28   14   15 2
  29   14   16 1
  30   16   17 1
  31   16   41 1
  32   16   42 1
  33   17   18 1
  34   17   43 1
  35   17   44 1
  36   18   19 1
  37   18   45 1
  38   18   46 1
  39   19   20 1
  40   19   47 1
  41   19   48 1
  42   20   21 1
  43   20   49 1
  44   20   50 1
  45   21   51 1
  46   21   52 1
  47   22   23 1
  48   22   53 1
  49   22   54 1
  50   23   24 ar
  51   23   28 ar
  52   24   25 ar
  53   25   26 ar
  54   25   55 1
  55   26   27 ar
  56   26   56 1
  57   27   28 ar
  58   27   57 1
  59   28   58 1
  60   29   30 2
  61   29   31 1
  62   31   59 1

#	End of record

