#	Name: ASD03240687
#	Creating user name:	WinNT
#	Creation time:	15. 06. 2019 20:35

#	Modifying user name:	WinNT
#	Modification time:	15. 06. 2019 20:35

#	Program:	/corina/corina34_cracker 3.40 0067  02.08.2006

@<TRIPOS>MOLECULE
ASD03240687
  59   64    0    0    0
SMALL
NO_CHARGES


@<TRIPOS>ATOM
   1 C1            -0.0162     1.3406     0.0094 C.2     
   2 N2             0.0021    -0.0041     0.0020 N.2     
   3 C3             1.1202    -0.6827    -0.0123 C.2     
   4 C4             2.3899     0.0407    -0.0205 C.ar    
   5 C5             2.3641     1.4519    -0.0127 C.ar    
   6 N6             1.1344     2.0817     0.0024 N.pl3   
   7 C7             3.6179    -0.6286    -0.0353 C.ar    
   8 C8             4.7783     0.1389    -0.0418 C.ar    
   9 C9             4.6723     1.5432    -0.0333 C.ar    
  10 N10            3.4908     2.1422    -0.0202 N.ar    
  11 N11            0.7735     3.4345     0.0131 N.2     
  12 C12           -0.5349     3.5228     0.0261 C.2     
  13 C13           -1.0721     2.2417     0.0301 C.2     
  14 C14            6.1096    -0.5133    -0.0570 C.ar    
  15 C15            6.4052    -1.5217     0.8589 C.ar    
  16 C16            7.6459    -2.1255     0.8397 C.ar    
  17 C17            8.5956    -1.7316    -0.0857 C.ar    
  18 C18            8.3081    -0.7312    -0.9968 C.ar    
  19 C19            7.0686    -0.1245    -0.9910 C.ar    
  20 C20           -1.3265     4.8050     0.0413 C.3     
  21 C21            5.9041     2.3651    -0.0402 C.ar    
  22 C22            5.9318     3.5795    -0.7260 C.ar    
  23 C23            7.0825     4.3409    -0.7287 C.ar    
  24 C24            8.2073     3.9021    -0.0532 C.ar    
  25 C25            8.1861     2.6985     0.6288 C.ar    
  26 C26            7.0396     1.9309     0.6437 C.ar    
  27 C27            9.4609     4.7383    -0.0606 C.3     
  28 C28           10.3157     4.5783     1.2077 C.3     
  29 C29           11.5470     4.6098     0.2869 C.3     
  30 C30           10.6257     4.0953    -0.8318 C.3     
  31 C31           12.0885     6.0185     0.0356 C.3     
  32 O32           13.1520     5.9571    -0.9168 O.3     
  33 O33           12.5660     3.6808     0.6618 O.3     
  34 N34            9.2107     6.1382    -0.4289 N.3     
  35 H35            1.1053    -1.7626    -0.0176 H       
  36 H36            3.6639    -1.7076    -0.0412 H       
  37 H37           -2.1226     1.9916     0.0442 H       
  38 H38            5.6647    -1.8296     1.5823 H       
  39 H39            7.8761    -2.9069     1.5489 H       
  40 H40            9.5654    -2.2067    -0.0968 H       
  41 H41            9.0535    -0.4274    -1.7168 H       
  42 H42            6.8436     0.6534    -1.7057 H       
  43 H43           -1.5275     5.1201    -0.9827 H       
  44 H44           -2.2695     4.6437     0.5635 H       
  45 H45           -0.7550     5.5788     0.5539 H       
  46 H46            5.0544     3.9230    -1.2540 H       
  47 H47            7.1053     5.2811    -1.2595 H       
  48 H48            9.0673     2.3613     1.1543 H       
  49 H49            7.0228     0.9937     1.1801 H       
  50 H50           10.2553     5.4300     1.8852 H       
  51 H51           10.1727     3.6232     1.7130 H       
  52 H52           10.5674     3.0081    -0.8841 H       
  53 H53           10.8156     4.5571    -1.8007 H       
  54 H54           11.2899     6.6510    -0.3518 H       
  55 H55           12.4618     6.4364     0.9706 H       
  56 H56           13.5440     6.8163    -1.1247 H       
  57 H57           13.3430     3.6959     0.0864 H       
  58 H58            8.6688     6.1974    -1.2780 H       
  59 H59            8.7584     6.6348     0.3241 H       
@<TRIPOS>BOND
   1    1    2 1
   2    1    6 1
   3    1   13 2
   4    2    3 2
   5    3    4 1
   6    3   35 1
   7    4    5 ar
   8    4    7 ar
   9    5    6 1
  10    5   10 ar
  11    6   11 1
  12    7    8 ar
  13    7   36 1
  14    8    9 ar
  15    8   14 1
  16    9   10 ar
  17    9   21 1
  18   11   12 2
  19   12   13 1
  20   12   20 1
  21   13   37 1
  22   14   15 ar
  23   14   19 ar
  24   15   16 ar
  25   15   38 1
  26   16   17 ar
  27   16   39 1
  28   17   18 ar
  29   17   40 1
  30   18   19 ar
  31   18   41 1
  32   19   42 1
  33   20   43 1
  34   20   44 1
  35   20   45 1
  36   21   22 ar
  37   21   26 ar
  38   22   23 ar
  39   22   46 1
  40   23   24 ar
  41   23   47 1
  42   24   25 ar
  43   24   27 1
  44   25   26 ar
  45   25   48 1
  46   26   49 1
  47   27   28 1
  48   27   30 1
  49   27   34 1
  50   28   29 1
  51   28   50 1
  52   28   51 1
  53   29   30 1
  54   29   31 1
  55   29   33 1
  56   30   52 1
  57   30   53 1
  58   31   32 1
  59   31   54 1
  60   31   55 1
  61   32   56 1
  62   33   57 1
  63   34   58 1
  64   34   59 1

#	End of record

