#	Name: ASD03320126
#	Creating user name:	WinNT
#	Creation time:	15. 06. 2019 20:36

#	Modifying user name:	WinNT
#	Modification time:	15. 06. 2019 20:36

#	Program:	/corina/corina34_cracker 3.40 0067  02.08.2006

@<TRIPOS>MOLECULE
ASD03320126
  29   30    0    0    0
SMALL
NO_CHARGES


@<TRIPOS>ATOM
   1 C1            -0.1749     1.4740    -0.5686 C.2     
   2 C2            -0.1527    -0.0034    -0.5721 C.ar    
   3 C3             0.8982    -0.6981    -1.1849 C.ar    
   4 C4             0.8722    -2.0810    -1.1608 C.ar    
   5 C5            -0.1831    -2.7285    -0.5369 C.ar    
   6 N6            -1.1596    -2.0461     0.0323 N.ar    
   7 C7            -1.1752    -0.7293     0.0398 C.ar    
   8 O8             0.7237     2.0968    -1.1004 O.2     
   9 N9            -1.1942     2.1313     0.0193 N.am    
  10 C10           -1.1618     3.5281     0.1195 C.ar    
  11 C11           -2.3387     4.2587     0.0197 C.ar    
  12 C12           -2.3072     5.6352     0.1179 C.ar    
  13 C13           -1.0978     6.2898     0.3170 C.ar    
  14 C14            0.0794     5.5585     0.4172 C.ar    
  15 C15            0.0464     4.1816     0.3242 C.ar    
  16 S16           -1.0570     8.0469     0.4419 S.3     
  17 C17            0.7053     8.3974     0.6910 C.3     
  18 F18            1.1461     7.7651     1.8584 F       
  19 F19            1.4351     7.9190    -0.4025 F       
  20 Cl20           0.9484    10.1775     0.8432 Cl      
  21 Cl21          -0.2214    -4.4637    -0.5039 Cl      
  22 Br22           2.2605    -3.0773    -1.9705 Br      
  23 H23            1.7077    -0.1676    -1.6642 H       
  24 H24           -1.9893    -0.2065     0.5198 H       
  25 H25           -1.9501     1.6371     0.3731 H       
  26 H26           -3.2787     3.7498    -0.1351 H       
  27 H27           -3.2223     6.2033     0.0396 H       
  28 H28            1.0196     6.0669     0.5720 H       
  29 H29            0.9608     3.6128     0.4064 H       
@<TRIPOS>BOND
   1    1    2 1
   2    1    8 2
   3    1    9 am
   4    2    3 ar
   5    2    7 ar
   6    3    4 ar
   7    3   23 1
   8    4    5 ar
   9    4   22 1
  10    5    6 ar
  11    5   21 1
  12    6    7 ar
  13    7   24 1
  14    9   10 1
  15    9   25 1
  16   10   11 ar
  17   10   15 ar
  18   11   12 ar
  19   11   26 1
  20   12   13 ar
  21   12   27 1
  22   13   14 ar
  23   13   16 1
  24   14   15 ar
  25   14   28 1
  26   15   29 1
  27   16   17 1
  28   17   18 1
  29   17   19 1
  30   17   20 1

#	End of record

