#	Name: ASD03731148
#	Creating user name:	WinNT
#	Creation time:	15. 06. 2019 20:45

#	Modifying user name:	WinNT
#	Modification time:	15. 06. 2019 20:45

#	Program:	/corina/corina34_cracker 3.40 0067  02.08.2006

@<TRIPOS>MOLECULE
ASD03731148
  46   50    0    0    0
SMALL
NO_CHARGES


@<TRIPOS>ATOM
   1 O1            -0.0175     1.4361     0.0099 O.3     
   2 C2             0.0021    -0.0041     0.0020 C.3     
   3 C3             1.3451    -0.3163    -0.6721 C.3     
   4 C4             2.1587     0.9226    -0.4098 C.ar    
   5 C5             1.2615     1.9062     0.0003 C.ar    
   6 C6             1.7486     3.1673     0.3277 C.ar    
   7 C7             3.1031     3.4386     0.2364 C.ar    
   8 C8             3.9847     2.4527    -0.1831 C.ar    
   9 C9             3.5059     1.1961    -0.5043 C.ar    
  10 N10            2.1574    -2.4046    -1.1246 N.am    
  11 C11            1.9841    -1.5482    -0.0982 C.2     
  12 C12            1.1866    -0.5961    -2.1370 C.ar    
  13 C13            0.6757     0.1246    -3.1937 C.ar    
  14 C14            0.6686    -0.4210    -4.4651 C.ar    
  15 C15            1.1757    -1.6909    -4.6725 C.ar    
  16 C16            1.6886    -2.4163    -3.6174 C.ar    
  17 C17            1.6999    -1.8755    -2.3339 C.ar    
  18 O18            2.2851    -1.7358     1.0617 O.2     
  19 C19            2.7564    -3.7346    -0.9881 C.3     
  20 O20            1.2436    -5.1020     0.5232 O.3     
  21 C21            1.6763    -4.7445    -0.6969 C.2     
  22 C22            0.9818    -5.4403    -1.6150 C.2     
  23 C23            0.0781    -6.2650    -0.9064 C.2     
  24 C24            0.2745    -6.0238     0.4023 C.2     
  25 C25           -0.4673    -6.6772     1.5398 C.3     
  26 F26            0.2094    -7.8368     1.9328 F       
  27 F27           -0.5394    -5.7907     2.6197 F       
  28 F28           -1.7604    -7.0105     1.1229 F       
  29 O29            3.5704     4.6735     0.5581 O.3     
  30 C30            4.9788     4.8850     0.4413 C.3     
  31 F31            5.3751     4.6662    -0.8824 F       
  32 F32            5.2850     6.1997     0.8085 F       
  33 F33            5.6552     3.9960     1.2836 F       
  34 H34           -0.0211    -0.3969     1.0185 H       
  35 H35           -0.8268    -0.3990    -0.5855 H       
  36 H36            1.0669     3.9386     0.6543 H       
  37 H37            5.0407     2.6661    -0.2586 H       
  38 H38            4.1899     0.4264    -0.8301 H       
  39 H39            0.2802     1.1161    -3.0296 H       
  40 H40            0.2674     0.1434    -5.2938 H       
  41 H41            1.1697    -2.1166    -5.6650 H       
  42 H42            2.0826    -3.4074    -3.7871 H       
  43 H43            3.2631    -4.0018    -1.9154 H       
  44 H44            3.4764    -3.7266    -0.1698 H       
  45 H45            1.0928    -5.3801    -2.6876 H       
  46 H46           -0.6335    -6.9559    -1.3339 H       
@<TRIPOS>BOND
   1    1    2 1
   2    1    5 1
   3    2    3 1
   4    2   34 1
   5    2   35 1
   6    3    4 1
   7    3   11 1
   8    3   12 1
   9    4    5 ar
  10    4    9 ar
  11    5    6 ar
  12    6    7 ar
  13    6   36 1
  14    7    8 ar
  15    7   29 1
  16    8    9 ar
  17    8   37 1
  18    9   38 1
  19   10   11 am
  20   10   17 1
  21   10   19 1
  22   11   18 2
  23   12   13 ar
  24   12   17 ar
  25   13   14 ar
  26   13   39 1
  27   14   15 ar
  28   14   40 1
  29   15   16 ar
  30   15   41 1
  31   16   17 ar
  32   16   42 1
  33   19   21 1
  34   19   43 1
  35   19   44 1
  36   20   21 1
  37   20   24 1
  38   21   22 2
  39   22   23 1
  40   22   45 1
  41   23   24 2
  42   23   46 1
  43   24   25 1
  44   25   26 1
  45   25   27 1
  46   25   28 1
  47   29   30 1
  48   30   31 1
  49   30   32 1
  50   30   33 1

#	End of record

