#	Name: ASD01811205
#	Creating user name:	WinNT
#	Creation time:	15. 06. 2019 19:26

#	Modifying user name:	WinNT
#	Modification time:	15. 06. 2019 19:26

#	Program:	/corina/corina34_cracker 3.40 0067  02.08.2006

@<TRIPOS>MOLECULE
ASD01811205
  63   67    0    0    0
SMALL
NO_CHARGES


@<TRIPOS>ATOM
   1 C1            -7.3214     2.2133    -4.0019 C.1     
   2 C2            -6.3440     3.0076    -3.3205 C.ar    
   3 C3            -5.1730     2.4183    -2.8394 C.ar    
   4 C4            -4.2357     3.1893    -2.1839 C.ar    
   5 C5            -4.4538     4.5435    -2.0022 C.ar    
   6 C6            -5.6121     5.1338    -2.4759 C.ar    
   7 C7            -6.5548     4.3759    -3.1392 C.ar    
   8 N8            -8.0969     1.5833    -4.5425 N.1     
   9 N9            -2.4098     7.7982    -0.2276 N.am    
  10 C10           -1.8546     7.3097    -1.4972 C.3     
  11 C11           -2.9246     6.4838    -2.2180 C.3     
  12 C12           -3.4254     5.3792    -1.2846 C.3     
  13 C13           -4.0572     6.0078    -0.0405 C.3     
  14 C14           -3.0000     6.8284     0.7050 C.3     
  15 C15           -2.3735     9.1104     0.0781 C.2     
  16 C16           -3.0191     9.5994     1.3152 C.ar    
  17 C17           -3.9802    10.6109     1.2505 C.ar    
  18 C18           -4.5838    11.0685     2.4046 C.ar    
  19 C19           -4.2427    10.5302     3.6298 C.ar    
  20 C20           -3.2839     9.5183     3.7087 C.ar    
  21 C21           -2.6742     9.0484     2.5474 C.ar    
  22 O22           -1.8100     9.8917    -0.6632 O.2     
  23 N23           -2.8722     8.5821     7.1169 N.2     
  24 N24           -3.4145     9.2860     6.1884 N.2     
  25 C25           -2.9195     8.9434     5.0218 C.2     
  26 N26           -1.9991     7.9493     5.2513 N.pl3   
  27 C27           -2.0002     7.7496     6.5999 C.2     
  28 O28           -1.2414     6.8569     7.2801 O.3     
  29 C29           -1.4045     6.8149     8.6991 C.3     
  30 C30           -4.3587    11.2043    -0.0821 C.3     
  31 C31           -5.3450    10.2750    -0.7925 C.3     
  32 C32           -4.9066    11.0364     4.8845 C.3     
  33 C33           -4.7390    12.5189     5.2235 C.3     
  34 C34           -6.0865    11.9966     4.7213 C.3     
  35 H35           -5.0018     1.3612    -2.9800 H       
  36 H36           -3.3296     2.7348    -1.8113 H       
  37 H37           -5.7762     6.1913    -2.3304 H       
  38 H38           -7.4562     4.8389    -3.5127 H       
  39 H39           -1.5658     8.1566    -2.1196 H       
  40 H40           -0.9833     6.6855    -1.2988 H       
  41 H41           -3.7570     7.1302    -2.4962 H       
  42 H42           -2.4958     6.0359    -3.1145 H       
  43 H43           -2.5881     4.7480    -0.9869 H       
  44 H44           -4.8789     6.6587    -0.3392 H       
  45 H45           -4.4346     5.2212     0.6129 H       
  46 H46           -2.2221     6.1649     1.0830 H       
  47 H47           -3.4670     7.3577     1.5356 H       
  48 H48           -5.3259    11.8513     2.3492 H       
  49 H49           -1.9349     8.2631     2.6026 H       
  50 H50           -1.4603     7.4860     4.5910 H       
  51 H51           -0.7401     6.0596     9.1190 H       
  52 H52           -1.1600     7.7893     9.1219 H       
  53 H53           -2.4377     6.5637     8.9388 H       
  54 H54           -4.8238    12.1778     0.0726 H       
  55 H55           -3.4648    11.3219    -0.6945 H       
  56 H56           -6.2390    10.1574    -0.1800 H       
  57 H57           -5.6188    10.7042    -1.7563 H       
  58 H58           -4.8799     9.3014    -0.9472 H       
  59 H59           -4.9423    10.3311     5.7148 H       
  60 H60           -4.6649    12.7890     6.2770 H       
  61 H61           -4.1486    13.1281     4.5391 H       
  62 H62           -6.3826    12.2622     3.7065 H       
  63 H63           -6.8989    11.9231     5.4443 H       
@<TRIPOS>BOND
   1    1    2 1
   2    1    8 3
   3    2    3 ar
   4    2    7 ar
   5    3    4 ar
   6    3   35 1
   7    4    5 ar
   8    4   36 1
   9    5    6 ar
  10    5   12 1
  11    6    7 ar
  12    6   37 1
  13    7   38 1
  14    9   10 1
  15    9   14 1
  16    9   15 am
  17   10   11 1
  18   10   39 1
  19   10   40 1
  20   11   12 1
  21   11   41 1
  22   11   42 1
  23   12   13 1
  24   12   43 1
  25   13   14 1
  26   13   44 1
  27   13   45 1
  28   14   46 1
  29   14   47 1
  30   15   16 1
  31   15   22 2
  32   16   17 ar
  33   16   21 ar
  34   17   18 ar
  35   17   30 1
  36   18   19 ar
  37   18   48 1
  38   19   20 ar
  39   19   32 1
  40   20   21 ar
  41   20   25 1
  42   21   49 1
  43   23   24 1
  44   23   27 2
  45   24   25 2
  46   25   26 1
  47   26   27 1
  48   26   50 1
  49   27   28 1
  50   28   29 1
  51   29   51 1
  52   29   52 1
  53   29   53 1
  54   30   31 1
  55   30   54 1
  56   30   55 1
  57   31   56 1
  58   31   57 1
  59   31   58 1
  60   32   33 1
  61   32   34 1
  62   32   59 1
  63   33   34 1
  64   33   60 1
  65   33   61 1
  66   34   62 1
  67   34   63 1

#	End of record

