#	Name: ASD02588021
#	Creating user name:	WinNT
#	Creation time:	15. 06. 2019 20:25

#	Modifying user name:	WinNT
#	Modification time:	15. 06. 2019 20:25

#	Program:	/corina/corina34_cracker 3.40 0067  02.08.2006

@<TRIPOS>MOLECULE
ASD02588021
  49   51    0    0    0
SMALL
NO_CHARGES


@<TRIPOS>ATOM
   1 C1            -0.0165     1.3692     0.0096 C.2     
   2 N2             0.0021    -0.0041     0.0020 N.pl3   
   3 N3            -1.2217    -0.6902     0.0100 N.2     
   4 C4            -2.3523    -0.0178     0.0244 C.2     
   5 N5            -2.3789     1.3203     0.0314 N.2     
   6 C6            -1.2674     2.0316     0.0303 C.2     
   7 C7             1.3035     1.8294    -0.0006 C.2     
   8 C8             2.1390     0.6902    -0.0146 C.2     
   9 C9             1.3027    -0.4331    -0.0127 C.2     
  10 N10           -1.3241     3.4120     0.0381 N.pl3   
  11 C11            1.7284     3.1969     0.0027 C.1     
  12 C12            3.5709     0.6852    -0.0288 C.1     
  13 C13           -3.6324    -0.7630     0.0326 C.2     
  14 O14           -4.6876    -0.1587     0.0460 O.2     
  15 C15           -3.6275    -2.1949     0.0249 C.1     
  16 C16            2.0768     4.3180     0.0054 C.1     
  17 C17            4.7449     0.6810    -0.0403 C.1     
  18 C18           -3.6234    -3.3689     0.0185 C.1     
  19 C19            2.5136     5.7237     0.0088 C.3     
  20 C20            6.2168     0.6758    -0.0548 C.3     
  21 C21           -3.6183    -4.8409     0.0106 C.3     
  22 C22            1.7293    -1.7832    -0.0233 C.2     
  23 O23            2.9176    -2.0458    -0.0358 O.2     
  24 O24            0.8181    -2.7790    -0.0195 O.3     
  25 C25            1.3194    -4.1172    -0.0308 C.3     
  26 C26            0.1651    -5.0860    -0.0246 C.ar    
  27 C27           -0.3756    -5.5246    -1.2188 C.ar    
  28 C28           -1.4344    -6.4133    -1.2131 C.ar    
  29 C29           -1.9522    -6.8638    -0.0132 C.ar    
  30 C30           -1.4109    -6.4260     1.1810 C.ar    
  31 C31           -0.3493    -5.5406     1.1753 C.ar    
  32 H32           -2.1834     3.8621     0.0445 H       
  33 H33           -0.5047     3.9312     0.0372 H       
  34 H34            3.6027     5.7657    -0.0014 H       
  35 H35            2.1222     6.2279    -0.8748 H       
  36 H36            2.1392     6.2183     0.9050 H       
  37 H37            6.5764    -0.3531    -0.0637 H       
  38 H38            6.5732     1.1930    -0.9457 H       
  39 H39            6.5907     1.1838     0.8341 H       
  40 H40           -4.6446    -5.2078     0.0184 H       
  41 H41           -3.1117    -5.1976    -0.8862 H       
  42 H42           -3.0947    -5.2072     0.8936 H       
  43 H43            1.9196    -4.2728    -0.9272 H       
  44 H44            1.9364    -4.2814     0.8526 H       
  45 H45            0.0290    -5.1726    -2.1563 H       
  46 H46           -1.8573    -6.7554    -2.1462 H       
  47 H47           -2.7798    -7.5576    -0.0088 H       
  48 H48           -1.8156    -6.7777     2.1185 H       
  49 H49            0.0761    -5.2014     2.1083 H       
@<TRIPOS>BOND
   1    1    2 1
   2    1    7 2
   3    1    6 1
   4    2    3 1
   5    2    9 1
   6    3    4 2
   7    4    5 1
   8    4   13 1
   9    5    6 2
  10    6   10 1
  11    7    8 1
  12    7   11 1
  13    8    9 2
  14    8   12 1
  15    9   22 1
  16   10   32 1
  17   10   33 1
  18   11   16 3
  19   12   17 3
  20   13   14 2
  21   13   15 1
  22   15   18 3
  23   16   19 1
  24   17   20 1
  25   18   21 1
  26   19   34 1
  27   19   35 1
  28   19   36 1
  29   20   37 1
  30   20   38 1
  31   20   39 1
  32   21   40 1
  33   21   41 1
  34   21   42 1
  35   22   23 2
  36   22   24 1
  37   24   25 1
  38   25   26 1
  39   25   43 1
  40   25   44 1
  41   26   27 ar
  42   26   31 ar
  43   27   28 ar
  44   27   45 1
  45   28   29 ar
  46   28   46 1
  47   29   30 ar
  48   29   47 1
  49   30   31 ar
  50   30   48 1
  51   31   49 1

#	End of record

