#	Name: ASD01918065
#	Creating user name:	WinNT
#	Creation time:	15. 06. 2019 20:10

#	Modifying user name:	WinNT
#	Modification time:	15. 06. 2019 20:10

#	Program:	/corina/corina34_cracker 3.40 0067  02.08.2006

@<TRIPOS>MOLECULE
ASD01918065
  50   54    0    0    0
SMALL
NO_CHARGES


@<TRIPOS>ATOM
   1 C1            -0.0282     1.5016    -0.0213 C.3     
   2 C2            -0.0020    -0.0041    -0.0111 C.2     
   3 C3             1.0777    -0.7492    -0.3540 C.2     
   4 C4             2.3980    -0.1765    -0.7954 C.3     
   5 C5             2.1818     1.2928    -1.1809 C.3     
   6 C6             1.4190     2.0092    -0.0638 C.3     
   7 N7             0.7122    -2.0350    -0.2154 N.pl3   
   8 N8            -0.5151    -2.0597     0.1845 N.2     
   9 N9            -0.9668    -0.8582     0.3147 N.2     
  10 C10            1.5578    -3.2033    -0.4730 C.3     
  11 C11            1.4228     3.4933    -0.3251 C.2     
  12 N12            1.9222     4.4193     0.4550 N.2     
  13 C13            1.6985     5.5907    -0.1824 C.2     
  14 N14            1.0824     5.3099    -1.3012 N.2     
  15 O15            0.9222     4.1116    -1.3993 O.3     
  16 C16            2.0806     6.9417     0.2978 C.ar    
  17 C17            1.7837     8.0661    -0.4702 C.ar    
  18 C18            2.1407     9.3203    -0.0201 C.ar    
  19 C19            2.7942     9.4630     1.1935 C.ar    
  20 C20            3.0918     8.3477     1.9600 C.ar    
  21 C21            2.7323     7.0903     1.5205 C.ar    
  22 F22            3.1425    10.6931     1.6304 F       
  23 C23            0.7943    -4.4795    -0.1056 C.3     
  24 C24           -0.4377    -4.6047    -1.0057 C.3     
  25 O25           -0.0272    -4.6130    -2.3744 O.3     
  26 C26            0.6502    -3.4244    -2.7876 C.3     
  27 C27            1.9260    -3.2518    -1.9591 C.3     
  28 C28            2.8317    -3.1087     0.3690 C.3     
  29 H29           -0.5669     1.8536    -0.9010 H       
  30 H30           -0.5190     1.8665     0.8809 H       
  31 H31            3.1173    -0.2399     0.0211 H       
  32 H32            2.7695    -0.7314    -1.6568 H       
  33 H33            3.1479     1.7755    -1.3284 H       
  34 H34            1.6055     1.3448    -2.1047 H       
  35 H35            1.9025     1.8080     0.8921 H       
  36 H36            1.2750     7.9556    -1.4165 H       
  37 H37            1.9110    10.1922    -0.6146 H       
  38 H38            3.6018     8.4633     2.9049 H       
  39 H39            2.9604     6.2220     2.1208 H       
  40 H40            1.4407    -5.3451    -0.2504 H       
  41 H41            0.4802    -4.4286     0.9369 H       
  42 H42           -0.9616    -5.5330    -0.7777 H       
  43 H43           -1.1031    -3.7593    -0.8308 H       
  44 H44            0.9101    -3.5025    -3.8432 H       
  45 H45           -0.0009    -2.5636    -2.6360 H       
  46 H46            2.4211    -2.3229    -2.2421 H       
  47 H47            2.5952    -4.0926    -2.1413 H       
  48 H48            2.5672    -3.0784     1.4260 H       
  49 H49            3.4599    -3.9784     0.1765 H       
  50 H50            3.3756    -2.2019     0.1044 H       
@<TRIPOS>BOND
   1    1    2 1
   2    1    6 1
   3    1   29 1
   4    1   30 1
   5    2    9 1
   6    2    3 2
   7    3    4 1
   8    3    7 1
   9    4    5 1
  10    4   31 1
  11    4   32 1
  12    5    6 1
  13    5   33 1
  14    5   34 1
  15    6   11 1
  16    6   35 1
  17    7    8 1
  18    7   10 1
  19    8    9 2
  20   10   23 1
  21   10   27 1
  22   10   28 1
  23   11   12 2
  24   11   15 1
  25   12   13 1
  26   13   14 2
  27   13   16 1
  28   14   15 1
  29   16   17 ar
  30   16   21 ar
  31   17   18 ar
  32   17   36 1
  33   18   19 ar
  34   18   37 1
  35   19   20 ar
  36   19   22 1
  37   20   21 ar
  38   20   38 1
  39   21   39 1
  40   23   24 1
  41   23   40 1
  42   23   41 1
  43   24   25 1
  44   24   42 1
  45   24   43 1
  46   25   26 1
  47   26   27 1
  48   26   44 1
  49   26   45 1
  50   27   46 1
  51   27   47 1
  52   28   48 1
  53   28   49 1
  54   28   50 1

#	End of record

