#	Name: ASD01816536
#	Creating user name:	WinNT
#	Creation time:	15. 06. 2019 19:35

#	Modifying user name:	WinNT
#	Modification time:	15. 06. 2019 19:35

#	Program:	/corina/corina34_cracker 3.40 0067  02.08.2006

@<TRIPOS>MOLECULE
ASD01816536
  62   67    0    0    0
SMALL
NO_CHARGES


@<TRIPOS>ATOM
   1 C1            -0.0167     1.3812     0.0096 C.ar    
   2 C2             0.0021    -0.0041     0.0020 C.ar    
   3 C3             1.1984    -0.6908    -0.0131 C.ar    
   4 C4             2.4015     0.0061    -0.0204 C.ar    
   5 C5             2.3789     1.4106    -0.0127 C.ar    
   6 C6             1.1664     2.0916     0.0022 C.ar    
   7 N7             3.6054    -0.6770    -0.0347 N.pl3   
   8 C8             4.7971    -0.0584    -0.0423 C.2     
   9 C9             4.9001     1.3105    -0.0364 C.2     
  10 C10            3.6673     2.1304    -0.0207 C.2     
  11 C11            5.9972     2.2731    -0.0422 C.2     
  12 N12            5.4244     3.4961    -0.0313 N.am    
  13 N13            4.0322     3.3795    -0.0185 N.2     
  14 C14            6.1581     4.7641    -0.0316 C.3     
  15 O15            7.1917     2.0232    -0.0541 O.2     
  16 C16            3.5781    -2.1418    -0.0413 C.3     
  17 C17            3.5556    -2.6374    -1.4643 C.ar    
  18 C18            4.7435    -2.8866    -2.1269 C.ar    
  19 C19            4.7261    -3.3404    -3.4313 C.ar    
  20 C20            3.5145    -3.5468    -4.0770 C.ar    
  21 C21            2.3235    -3.2961    -3.4089 C.ar    
  22 C22            2.3472    -2.8473    -2.1028 C.ar    
  23 N23            3.4936    -4.0069    -5.4010 N.pl3   
  24 C24            2.3887    -4.2482    -6.1424 C.2     
  25 C25            2.7953    -4.6776    -7.3595 C.2     
  26 C26            4.1944    -4.6999    -7.3632 C.2     
  27 N27            4.6137    -4.2925    -6.1923 N.2     
  28 C28            5.7782     5.5728    -1.2741 C.3     
  29 C29            6.5730     6.8823    -1.2890 C.3     
  30 N30            6.3484     7.5862    -0.0190 N.am    
  31 C31            6.5963     6.8694     1.2394 C.3     
  32 C32            5.8013     5.5600     1.2259 C.3     
  33 S33            5.8264     9.1577    -0.0061 S.o2    
  34 O34            6.3015     9.6747     1.2293 O.2     
  35 O35            6.2791     9.6875    -1.2445 O.2     
  36 C36            4.0167     9.0334     0.0097 C.3     
  37 H37           -0.9602     1.9068     0.0170 H       
  38 H38           -0.9288    -0.5516     0.0083 H       
  39 H39            1.2005    -1.7708    -0.0189 H       
  40 H40            1.1508     3.1714     0.0084 H       
  41 H41            5.6984    -0.6535    -0.0530 H       
  42 H42            7.2295     4.5637    -0.0425 H       
  43 H43            4.4658    -2.5240     0.4626 H       
  44 H44            2.6862    -2.4908     0.4791 H       
  45 H45            5.6857    -2.7259    -1.6242 H       
  46 H46            5.6542    -3.5343    -3.9486 H       
  47 H47            1.3794    -3.4554    -3.9087 H       
  48 H48            1.4211    -2.6521    -1.5826 H       
  49 H49            1.3656    -4.1215    -5.8207 H       
  50 H50            2.1533    -4.9543    -8.1827 H       
  51 H51            4.8205    -4.9976    -8.1913 H       
  52 H52            6.0110     4.9957    -2.1690 H       
  53 H53            4.7113     5.7950    -1.2514 H       
  54 H54            7.6348     6.6640    -1.4030 H       
  55 H55            6.2349     7.5055    -2.1169 H       
  56 H56            7.6601     6.6500     1.3315 H       
  57 H57            6.2738     7.4841     2.0797 H       
  58 H58            4.7342     5.7823     1.2251 H       
  59 H59            6.0506     4.9738     2.1104 H       
  60 H60            3.6975     8.4913     0.8998 H       
  61 H61            3.5839    10.0337     0.0188 H       
  62 H62            3.6814     8.5005    -0.8801 H       
@<TRIPOS>BOND
   1    1    2 ar
   2    1    6 ar
   3    1   37 1
   4    2    3 ar
   5    2   38 1
   6    3    4 ar
   7    3   39 1
   8    4    5 ar
   9    4    7 1
  10    5    6 ar
  11    5   10 1
  12    6   40 1
  13    7    8 1
  14    7   16 1
  15    8    9 2
  16    8   41 1
  17    9   10 1
  18    9   11 1
  19   10   13 2
  20   11   12 am
  21   11   15 2
  22   12   13 1
  23   12   14 1
  24   14   28 1
  25   14   32 1
  26   14   42 1
  27   16   17 1
  28   16   43 1
  29   16   44 1
  30   17   18 ar
  31   17   22 ar
  32   18   19 ar
  33   18   45 1
  34   19   20 ar
  35   19   46 1
  36   20   21 ar
  37   20   23 1
  38   21   22 ar
  39   21   47 1
  40   22   48 1
  41   23   24 1
  42   23   27 1
  43   24   25 2
  44   24   49 1
  45   25   26 1
  46   25   50 1
  47   26   27 2
  48   26   51 1
  49   28   29 1
  50   28   52 1
  51   28   53 1
  52   29   30 1
  53   29   54 1
  54   29   55 1
  55   30   31 1
  56   30   33 am
  57   31   32 1
  58   31   56 1
  59   31   57 1
  60   32   58 1
  61   32   59 1
  62   33   34 2
  63   33   35 2
  64   33   36 1
  65   36   60 1
  66   36   61 1
  67   36   62 1

#	End of record

