#	Name: ASD07930820
#	Creating user name:	WinNT
#	Creation time:	15. 06. 2019 21:13

#	Modifying user name:	WinNT
#	Modification time:	15. 06. 2019 21:13

#	Program:	/corina/corina34_cracker 3.40 0067  02.08.2006

@<TRIPOS>MOLECULE
ASD07930820
  66   70    0    0    0
SMALL
NO_CHARGES


@<TRIPOS>ATOM
   1 C1            -0.5855     0.0544     0.0644 C.3     
   2 O2            -0.2597    -1.3228     0.2629 O.3     
   3 O3             2.1263     2.1905     1.1907 O.3     
   4 C4             1.5531     0.8659     1.1375 C.3     
   5 C5             0.6996     0.8566    -0.1501 C.3     
   6 C6             0.3730     2.3469    -0.3947 C.3     
   7 C7             1.0678     3.0802     0.7739 C.3     
   8 C8             2.6575    -0.1894     1.0520 C.3     
   9 O9             3.4076    -0.1935     2.2683 O.3     
  10 C10            4.4700    -1.1489     2.2928 C.3     
  11 C11            2.8654    -5.0754     1.7877 C.ar    
  12 C12            7.2108    -0.3129    -0.8753 C.ar    
  13 C13            6.5092    -0.9149     6.0390 C.ar    
  14 C14            2.0970    -4.0843     2.3692 C.ar    
  15 C15            2.6164    -2.8138     2.5329 C.ar    
  16 C16            3.9040    -2.5342     2.1148 C.ar    
  17 C17            4.6722    -3.5252     1.5328 C.ar    
  18 C18            4.1530    -4.7959     1.3695 C.ar    
  19 C19            7.5057     0.0822     0.4162 C.ar    
  20 C20            6.6187    -0.1880     1.4413 C.ar    
  21 C21            5.4368    -0.8539     1.1751 C.ar    
  22 C22            5.1421    -1.2494    -0.1162 C.ar    
  23 C23            6.0289    -0.9787    -1.1414 C.ar    
  24 C24            5.9095     0.2113     5.5070 C.ar    
  25 C25            5.2499     0.1356     4.2945 C.ar    
  26 C26            5.1895    -1.0663     3.6143 C.ar    
  27 C27            5.7888    -2.1926     4.1466 C.ar    
  28 C28            6.4488    -2.1168     5.3589 C.ar    
  29 C29            0.9395     2.8017    -1.7150 C.ar    
  30 C30            2.3035     2.7322    -1.9435 C.ar    
  31 C31            2.8238     3.1503    -3.1570 C.ar    
  32 C32            1.9784     3.6376    -4.1404 C.ar    
  33 C33            0.6153     3.7058    -3.9088 C.ar    
  34 C34            0.0970     3.2828    -2.6991 C.ar    
  35 F35            2.4841     4.0464    -5.3246 F       
  36 F36            3.1263     2.2571    -0.9831 F       
  37 Cl37           4.5335     3.0645    -3.4452 Cl      
  38 N38           -1.0784     2.5695    -0.3519 N.3     
  39 H39           -1.2262     0.1535    -0.8119 H       
  40 H40           -1.1087     0.4341     0.9419 H       
  41 H41           -1.0282    -1.8921     0.4055 H       
  42 H42            0.9248     0.6891     2.0105 H       
  43 H43            1.2708     0.4489    -0.9840 H       
  44 H44            0.3651     3.2429     1.5912 H       
  45 H45            1.4818     4.0294     0.4337 H       
  46 H46            2.2105    -1.1714     0.8975 H       
  47 H47            3.3192     0.0439     0.2179 H       
  48 H48            2.4612    -6.0693     1.6638 H       
  49 H49            7.9018    -0.0979    -1.6769 H       
  50 H50            7.0283    -0.8547     6.9842 H       
  51 H51            1.0909    -4.3026     2.6955 H       
  52 H52            2.0158    -2.0392     2.9866 H       
  53 H53            5.6780    -3.3067     1.2058 H       
  54 H54            4.7532    -5.5702     0.9149 H       
  55 H55            8.4293     0.6020     0.6242 H       
  56 H56            6.8494     0.1200     2.4504 H       
  57 H57            4.2189    -1.7699    -0.3241 H       
  58 H58            5.7987    -1.2878    -2.1503 H       
  59 H59            5.9563     1.1502     6.0386 H       
  60 H60            4.7807     1.0153     3.8792 H       
  61 H61            5.7413    -3.1317     3.6154 H       
  62 H62            6.9170    -2.9967     5.7747 H       
  63 H63           -0.0440     4.0857    -4.6753 H       
  64 H64           -0.9671     3.3324    -2.5213 H       
  65 H65           -1.3001     3.5409    -0.5109 H       
  66 H66           -1.5549     1.9766    -1.0149 H       
@<TRIPOS>BOND
   1    1    2 1
   2    1    5 1
   3    1   39 1
   4    1   40 1
   5    2   41 1
   6    3    4 1
   7    3    7 1
   8    4    5 1
   9    4    8 1
  10    4   42 1
  11    5    6 1
  12    5   43 1
  13    6    7 1
  14    6   29 1
  15    6   38 1
  16    7   44 1
  17    7   45 1
  18    8    9 1
  19    8   46 1
  20    8   47 1
  21    9   10 1
  22   10   16 1
  23   10   21 1
  24   10   26 1
  25   11   14 ar
  26   11   18 ar
  27   11   48 1
  28   12   19 ar
  29   12   23 ar
  30   12   49 1
  31   13   24 ar
  32   13   28 ar
  33   13   50 1
  34   14   15 ar
  35   14   51 1
  36   15   16 ar
  37   15   52 1
  38   16   17 ar
  39   17   18 ar
  40   17   53 1
  41   18   54 1
  42   19   20 ar
  43   19   55 1
  44   20   21 ar
  45   20   56 1
  46   21   22 ar
  47   22   23 ar
  48   22   57 1
  49   23   58 1
  50   24   25 ar
  51   24   59 1
  52   25   26 ar
  53   25   60 1
  54   26   27 ar
  55   27   28 ar
  56   27   61 1
  57   28   62 1
  58   29   30 ar
  59   29   34 ar
  60   30   31 ar
  61   30   36 1
  62   31   32 ar
  63   31   37 1
  64   32   33 ar
  65   32   35 1
  66   33   34 ar
  67   33   63 1
  68   34   64 1
  69   38   65 1
  70   38   66 1

#	End of record

