#	Name: ASD01140239
#	Creating user name:	WinNT
#	Creation time:	15. 06. 2019 19:00

#	Modifying user name:	WinNT
#	Modification time:	15. 06. 2019 19:00

#	Program:	/corina/corina34_cracker 3.40 0067  02.08.2006

@<TRIPOS>MOLECULE
ASD01140239
 107  112    0    0    0
SMALL
NO_CHARGES


@<TRIPOS>ATOM
   1 C1            -0.8389     2.6070    -0.3045 C.ar    
   2 C2            -1.0475     1.2353    -0.4757 C.ar    
   3 C3             0.0415     0.3867    -0.6281 C.ar    
   4 C4             1.3461     0.8968    -0.6107 C.ar    
   5 C5             1.5444     2.2667    -0.4406 C.ar    
   6 C6             2.4523    -0.0603    -0.7732 C.2     
   7 N7             3.5585    -0.0246    -0.1191 N.2     
   8 C8             3.8332     1.0104     0.8769 C.3     
   9 C9             3.8705     2.3484     0.1902 C.2     
  10 N10            2.7986     2.8550    -0.4145 N.am    
  11 C11           -2.3784     0.7072    -0.4935 C.1     
  12 C12            2.9576     4.1357    -1.1079 C.3     
  13 O13            4.9046     2.9821     0.1875 O.2     
  14 O14            1.8680     5.7019    10.0415 O.2     
  15 C15            0.9067     5.0067     9.7894 C.2     
  16 N16           -0.2263     5.5849     9.3981 N.am    
  17 C17           -0.2568     7.0490     9.3563 C.3     
  18 C18            1.0282     3.5130     9.9211 C.3     
  19 N19            0.1109     3.0542    10.9636 N.2     
  20 C20           -1.1634     3.1818    10.8507 C.2     
  21 C21           -1.8512     3.7788     9.6946 C.ar    
  22 C22           -1.3792     4.9120     9.0268 C.ar    
  23 C23           -3.0310     3.1643     9.2555 C.ar    
  24 C24           -3.7275     3.6755     8.1680 C.ar    
  25 C25           -3.2470     4.8106     7.5084 C.ar    
  26 C26           -4.9325     3.0420     7.7238 C.1     
  27 C27           -3.4696     0.2742    -0.5080 C.1     
  28 C28           -5.9204     2.5227     7.3597 C.1     
  29 C29           -2.0027     2.6904    11.9682 C.ar    
  30 C30           -1.5154     1.7086    12.8307 C.ar    
  31 C31           -2.3017     1.2553    13.8700 C.ar    
  32 C32           -3.5712     1.7722    14.0571 C.ar    
  33 C33           -4.0604     2.7459    13.2046 C.ar    
  34 C34           -3.2812     3.2117    12.1655 C.ar    
  35 C35            2.2778    -1.1469    -1.7650 C.ar    
  36 C36            1.3844    -0.9909    -2.8246 C.ar    
  37 C37            1.2266    -2.0063    -3.7454 C.ar    
  38 C38            1.9520    -3.1776    -3.6189 C.ar    
  39 C39            2.8393    -3.3384    -2.5697 C.ar    
  40 C40            3.0105    -2.3277    -1.6461 C.ar    
  41 C41            1.8740     1.5280     4.0765 C.3     
  42 C42            2.3096     2.2069     5.3767 C.3     
  43 C43            1.1585     2.1664     6.3837 C.3     
  44 C44            0.4397     3.1100    -0.2881 C.ar    
  45 C45           -2.0904     5.4143     7.9329 C.ar    
  46 Si46          -5.2355    -0.4265    -0.5315 Si      
  47 C47           -5.1680    -2.2722    -0.7753 C.3     
  48 C48           -6.0769    -0.0441     1.0861 C.3     
  49 C49           -6.1931     0.3499    -1.9283 C.3     
  50 Si50          -7.5193     1.6822     6.7704 Si      
  51 C51           -8.2023     2.6060     5.3038 C.3     
  52 C52           -7.1517    -0.0770     6.2799 C.3     
  53 C53           -8.7716     1.6937     8.1497 C.3     
  54 C54            2.7457     1.0085     1.9201 C.2     
  55 O55            2.9665     1.5664     3.1209 O.3     
  56 O56            1.6750     0.5048     1.6757 O.2     
  57 C57            0.6705     2.8599     8.6109 C.2     
  58 O58            1.5719     2.8106     7.6175 O.3     
  59 O59           -0.4275     2.3806     8.4547 O.2     
  60 H60           -1.6824     3.2716    -0.1897 H       
  61 H61           -0.1186    -0.6731    -0.7606 H       
  62 H62            4.7958     0.8157     1.3499 H       
  63 H63            3.9873     4.4786    -1.0061 H       
  64 H64            2.7195     4.0091    -2.1640 H       
  65 H65            2.2844     4.8723    -0.6695 H       
  66 H66            0.7100     7.4417     9.6711 H       
  67 H67           -0.4695     7.3790     8.3395 H       
  68 H68           -1.0337     7.4155    10.0273 H       
  69 H69            2.0508     3.2524    10.1940 H       
  70 H70           -3.4012     2.2873     9.7656 H       
  71 H71           -3.7843     5.2113     6.6615 H       
  72 H72           -0.5247     1.3038    12.6852 H       
  73 H73           -1.9254     0.4951    14.5386 H       
  74 H74           -4.1831     1.4140    14.8718 H       
  75 H75           -5.0523     3.1454    13.3555 H       
  76 H76           -3.6641     3.9718    11.5006 H       
  77 H77            0.8171    -0.0773    -2.9240 H       
  78 H78            0.5351    -1.8867    -4.5663 H       
  79 H79            1.8248    -3.9697    -4.3419 H       
  80 H80            3.4026    -4.2551    -2.4760 H       
  81 H81            3.7035    -2.4543    -0.8275 H       
  82 H82            1.6056     0.4914     4.2801 H       
  83 H83            1.0119     2.0523     3.6641 H       
  84 H84            3.1717     1.6826     5.7891 H       
  85 H85            2.5781     3.2435     5.1731 H       
  86 H86            0.2964     2.6907     5.9712 H       
  87 H87            0.8900     1.1298     6.5872 H       
  88 H88            0.5934     4.1707    -0.1552 H       
  89 H89           -1.7246     6.2889     7.4156 H       
  90 H90           -4.6078    -2.7264     0.0419 H       
  91 H91           -6.1811    -2.6742    -0.7888 H       
  92 H92           -4.6758    -2.4959    -1.7217 H       
  93 H93           -6.1164     1.0358     1.2287 H       
  94 H94           -7.0900    -0.4460     1.0726 H       
  95 H95           -5.5166    -0.4983     1.9033 H       
  96 H96           -5.7008     0.1261    -2.8747 H       
  97 H97           -7.2062    -0.0521    -1.9418 H       
  98 H98           -6.2325     1.4298    -1.7857 H       
  99 H99           -7.4696     2.5993     4.4969 H       
 100 H100          -9.1195     2.1239     4.9658 H       
 101 H101          -8.4174     3.6353     5.5908 H       
 102 H102          -6.7521    -0.6175     7.1380 H       
 103 H103          -8.0689    -0.5592     5.9419 H       
 104 H104          -6.4190    -0.0837     5.4730 H       
 105 H105          -8.9867     2.7230     8.4366 H       
 106 H106          -9.6888     1.2115     7.8116 H       
 107 H107          -8.3720     1.1532     9.0077 H       
@<TRIPOS>BOND
   1    1    2 ar
   2    1   44 ar
   3    1   60 1
   4    2    3 ar
   5    2   11 1
   6    3    4 ar
   7    3   61 1
   8    4    5 ar
   9    4    6 1
  10    5   10 1
  11    5   44 ar
  12    6    7 2
  13    6   35 1
  14    7    8 1
  15    8    9 1
  16    8   54 1
  17    8   62 1
  18    9   10 am
  19    9   13 2
  20   10   12 1
  21   11   27 3
  22   12   63 1
  23   12   64 1
  24   12   65 1
  25   14   15 2
  26   15   16 am
  27   15   18 1
  28   16   17 1
  29   16   22 1
  30   17   66 1
  31   17   67 1
  32   17   68 1
  33   18   19 1
  34   18   57 1
  35   18   69 1
  36   19   20 2
  37   20   21 1
  38   20   29 1
  39   21   22 ar
  40   21   23 ar
  41   22   45 ar
  42   23   24 ar
  43   23   70 1
  44   24   25 ar
  45   24   26 1
  46   25   45 ar
  47   25   71 1
  48   26   28 3
  49   27   46 1
  50   28   50 1
  51   29   30 ar
  52   29   34 ar
  53   30   31 ar
  54   30   72 1
  55   31   32 ar
  56   31   73 1
  57   32   33 ar
  58   32   74 1
  59   33   34 ar
  60   33   75 1
  61   34   76 1
  62   35   36 ar
  63   35   40 ar
  64   36   37 ar
  65   36   77 1
  66   37   38 ar
  67   37   78 1
  68   38   39 ar
  69   38   79 1
  70   39   40 ar
  71   39   80 1
  72   40   81 1
  73   41   42 1
  74   41   55 1
  75   41   82 1
  76   41   83 1
  77   42   43 1
  78   42   84 1
  79   42   85 1
  80   43   58 1
  81   43   86 1
  82   43   87 1
  83   44   88 1
  84   45   89 1
  85   46   47 1
  86   46   48 1
  87   46   49 1
  88   47   90 1
  89   47   91 1
  90   47   92 1
  91   48   93 1
  92   48   94 1
  93   48   95 1
  94   49   96 1
  95   49   97 1
  96   49   98 1
  97   50   51 1
  98   50   52 1
  99   50   53 1
 100   51   99 1
 101   51  100 1
 102   51  101 1
 103   52  102 1
 104   52  103 1
 105   52  104 1
 106   53  105 1
 107   53  106 1
 108   53  107 1
 109   54   55 1
 110   54   56 2
 111   57   58 1
 112   57   59 2

#	End of record

