#	Name: ASD01884525
#	Creating user name:	WinNT
#	Creation time:	15. 06. 2019 19:48

#	Modifying user name:	WinNT
#	Modification time:	15. 06. 2019 19:48

#	Program:	/corina/corina34_cracker 3.40 0067  02.08.2006

@<TRIPOS>MOLECULE
ASD01884525
  48   50    0    0    0
SMALL
NO_CHARGES


@<TRIPOS>ATOM
   1 C1            -0.0164     1.3576     0.0095 C.2     
   2 C2             0.0021    -0.0041     0.0020 C.2     
   3 C3             1.2440    -0.6751    -0.0134 C.2     
   4 C4             2.4024     0.0465    -0.0206 C.2     
   5 N5             2.3700     1.4024    -0.0126 N.am    
   6 C6             1.1986     2.0652     0.0017 C.2     
   7 O7             1.1911     3.2857     0.0083 O.2     
   8 C8             3.6266     2.1554    -0.0196 C.3     
   9 C9             4.0511     2.4259    -1.4644 C.3     
  10 C10            1.2897    -2.1584    -0.0214 C.ar    
  11 C11            0.8124    -2.8774     1.0728 C.ar    
  12 C12            1.8048    -2.8351    -1.1254 C.ar    
  13 C13            1.8460    -4.2138    -1.1298 C.ar    
  14 C14            1.3747    -4.9272    -0.0363 C.ar    
  15 C15            0.8562    -4.2560     1.0626 C.ar    
  16 O16            1.4158    -6.2856    -0.0439 O.3     
  17 C17            0.9144    -6.9563     1.1140 C.3     
  18 C18            5.2944     3.3175    -1.4723 C.3     
  19 C19            5.7189     3.5880    -2.9172 C.3     
  20 C20            6.0375     2.2624    -3.6117 C.3     
  21 C21            4.7942     1.3707    -3.6038 C.3     
  22 C22            4.3697     1.1003    -2.1589 C.3     
  23 C23            6.4620     2.5328    -5.0565 C.3     
  24 H24           -0.9563     1.8895     0.0169 H       
  25 H25           -0.9217    -0.5635     0.0082 H       
  26 H26            3.3528    -0.4664    -0.0325 H       
  27 H27            3.4854     3.1026     0.5010 H       
  28 H28            4.4003     1.5759     0.4840 H       
  29 H29            3.2408     2.9276    -1.9933 H       
  30 H30            0.4089    -2.3558     1.9281 H       
  31 H31            2.1710    -2.2806    -1.9768 H       
  32 H32            2.2451    -4.7388    -1.9851 H       
  33 H33            0.4906    -4.8137     1.9121 H       
  34 H34            1.0055    -8.0339     0.9777 H       
  35 H35            1.4892    -6.6507     1.9883 H       
  36 H36           -0.1340    -6.6958     1.2593 H       
  37 H37            5.0674     4.2619    -0.9775 H       
  38 H38            6.1047     2.8158    -0.9434 H       
  39 H39            4.9085     4.0897    -3.4461 H       
  40 H40            6.6046     4.2232    -2.9228 H       
  41 H41            6.8478     1.7607    -3.0828 H       
  42 H42            3.9839     1.8725    -4.1327 H       
  43 H43            5.0212     0.4264    -4.0986 H       
  44 H44            5.1801     0.5986    -1.6300 H       
  45 H45            3.4840     0.4651    -2.1533 H       
  46 H46            7.3477     3.1681    -5.0622 H       
  47 H47            6.6890     1.5885    -5.5513 H       
  48 H48            5.6517     3.0346    -5.5855 H       
@<TRIPOS>BOND
   1    1    2 2
   2    1    6 1
   3    1   24 1
   4    2    3 1
   5    2   25 1
   6    3    4 2
   7    3   10 1
   8    4    5 1
   9    4   26 1
  10    5    6 am
  11    5    8 1
  12    6    7 2
  13    8    9 1
  14    8   27 1
  15    8   28 1
  16    9   18 1
  17    9   22 1
  18    9   29 1
  19   10   11 ar
  20   10   12 ar
  21   11   15 ar
  22   11   30 1
  23   12   13 ar
  24   12   31 1
  25   13   14 ar
  26   13   32 1
  27   14   15 ar
  28   14   16 1
  29   15   33 1
  30   16   17 1
  31   17   34 1
  32   17   35 1
  33   17   36 1
  34   18   19 1
  35   18   37 1
  36   18   38 1
  37   19   20 1
  38   19   39 1
  39   19   40 1
  40   20   21 1
  41   20   23 1
  42   20   41 1
  43   21   22 1
  44   21   42 1
  45   21   43 1
  46   22   44 1
  47   22   45 1
  48   23   46 1
  49   23   47 1
  50   23   48 1

#	End of record

