#	Name: ASD03930253
#	Creating user name:	WinNT
#	Creation time:	15. 06. 2019 20:47

#	Modifying user name:	WinNT
#	Modification time:	15. 06. 2019 20:47

#	Program:	/corina/corina34_cracker 3.40 0067  02.08.2006

@<TRIPOS>MOLECULE
ASD03930253
  25   25    0    0    0
SMALL
NO_CHARGES


@<TRIPOS>ATOM
   1 C1            -0.0187     1.5258     0.0104 C.3     
   2 C2             0.0021    -0.0041     0.0020 C.3     
   3 N3            -1.3723    -0.5112     0.0124 N.pl3   
   4 C4            -1.6090    -1.8884     0.0073 C.ar    
   5 C5            -0.5423    -2.7775    -0.0019 C.ar    
   6 C6            -0.7791    -4.1384    -0.0065 C.ar    
   7 C7            -2.0777    -4.6158    -0.0019 C.ar    
   8 Cl8           -2.3717    -6.3268    -0.0071 Cl      
   9 C9            -3.1427    -3.7320     0.0072 C.ar    
  10 C10           -2.9118    -2.3706     0.0171 C.ar    
  11 S11           -4.2682    -1.2462     0.0355 S.o2    
  12 N12           -4.2055    -0.4258     1.4726 N.am    
  13 O13           -4.0107    -0.2902    -0.9839 O.2     
  14 O14           -5.4464    -2.0394     0.0773 O.2     
  15 H15            1.0039     1.9031     0.0027 H       
  16 H16           -0.5459     1.8868    -0.8726 H       
  17 H17           -0.5289     1.8773     0.9072 H       
  18 H18            0.5123    -0.3556    -0.8948 H       
  19 H19            0.5293    -0.3651     0.8851 H       
  20 H20           -2.1181     0.1091     0.0229 H       
  21 H21            0.4716    -2.4054    -0.0058 H       
  22 H22            0.0501    -4.8303    -0.0139 H       
  23 H23           -4.1554    -4.1074     0.0107 H       
  24 H24           -4.5407     0.4828     1.5275 H       
  25 H25           -3.8335    -0.8538     2.2596 H       
@<TRIPOS>BOND
   1    1    2 1
   2    1   15 1
   3    1   16 1
   4    1   17 1
   5    2    3 1
   6    2   18 1
   7    2   19 1
   8    3    4 1
   9    3   20 1
  10    4   10 ar
  11    4    5 ar
  12    5    6 ar
  13    5   21 1
  14    6    7 ar
  15    6   22 1
  16    7    8 1
  17    7    9 ar
  18    9   10 ar
  19    9   23 1
  20   10   11 1
  21   11   12 am
  22   11   13 2
  23   11   14 2
  24   12   24 1
  25   12   25 1

#	End of record

