#	Name: ASD00170132
#	Creating user name:	WinNT
#	Creation time:	15. 06. 2019 18:31

#	Modifying user name:	WinNT
#	Modification time:	15. 06. 2019 18:31

#	Program:	/corina/corina34_cracker 3.40 0067  02.08.2006

@<TRIPOS>MOLECULE
ASD00170132
  39   42    0    0    0
SMALL
NO_CHARGES


@<TRIPOS>ATOM
   1 C1            -0.0182     1.4915     0.0102 C.2     
   2 C2             0.0021    -0.0041     0.0020 C.ar    
   3 C3             1.3190    -0.4523    -0.0130 C.ar    
   4 C4             2.1957     0.7740    -0.0147 C.3     
   5 C5             1.2472     1.9528     0.0006 C.2     
   6 S6             1.2222     3.7156     0.0099 S.3     
   7 C7            -0.5366     3.6920     0.0263 C.2     
   8 N8            -0.9504     2.4702     0.0195 N.2     
   9 C9            -1.0453    -0.9281     0.0075 C.ar    
  10 C10           -0.7702    -2.2774    -0.0020 C.ar    
  11 C11            0.5516    -2.7231    -0.0170 C.ar    
  12 C12            1.5977    -1.7992    -0.0233 C.ar    
  13 N13           -1.3514     4.8123     0.0398 N.pl3   
  14 C14            0.8449    -4.1766    -0.0268 C.ar    
  15 C15           -0.1998    -5.0996    -0.0211 C.ar    
  16 C16            0.0780    -6.4546    -0.0308 C.ar    
  17 C17            1.3994    -6.8939    -0.0462 C.ar    
  18 C18            2.4379    -5.9750    -0.0515 C.ar    
  19 C19            2.1657    -4.6221    -0.0477 C.ar    
  20 O20           -0.9389    -7.3575    -0.0247 O.3     
  21 C21           -2.2693    -6.8361    -0.0083 C.3     
  22 O22            1.6717    -8.2260    -0.0557 O.3     
  23 C23            3.0491    -8.6065    -0.0715 C.3     
  24 H24            2.8272     0.7869     0.8736 H       
  25 H25            2.8101     0.7965    -0.9148 H       
  26 H26           -2.0692    -0.5850     0.0195 H       
  27 H27           -1.5797    -2.9923     0.0026 H       
  28 H28            2.6222    -2.1406    -0.0349 H       
  29 H29           -0.9573     5.6987     0.0406 H       
  30 H30           -2.3160     4.7104     0.0484 H       
  31 H31           -1.2241    -4.7574    -0.0087 H       
  32 H32            3.4617    -6.3187    -0.0628 H       
  33 H33            2.9762    -3.9084    -0.0518 H       
  34 H34           -2.9826    -7.6604    -0.0050 H       
  35 H35           -2.4108    -6.2296     0.8863 H       
  36 H36           -2.4293    -6.2207    -0.8936 H       
  37 H37            3.1256    -9.6938    -0.0778 H       
  38 H38            3.5272    -8.2034    -0.9643 H       
  39 H39            3.5450    -8.2125     0.8156 H       
@<TRIPOS>BOND
   1    1    2 1
   2    1    5 2
   3    1    8 1
   4    2    3 ar
   5    2    9 ar
   6    3    4 1
   7    3   12 ar
   8    4    5 1
   9    4   24 1
  10    4   25 1
  11    5    6 1
  12    6    7 1
  13    7    8 2
  14    7   13 1
  15    9   10 ar
  16    9   26 1
  17   10   11 ar
  18   10   27 1
  19   11   12 ar
  20   11   14 1
  21   12   28 1
  22   13   29 1
  23   13   30 1
  24   14   15 ar
  25   14   19 ar
  26   15   16 ar
  27   15   31 1
  28   16   17 ar
  29   16   20 1
  30   17   18 ar
  31   17   22 1
  32   18   19 ar
  33   18   32 1
  34   19   33 1
  35   20   21 1
  36   21   34 1
  37   21   35 1
  38   21   36 1
  39   22   23 1
  40   23   37 1
  41   23   38 1
  42   23   39 1

#	End of record

