#	Name: ASD07932017
#	Creating user name:	WinNT
#	Creation time:	15. 06. 2019 21:14

#	Modifying user name:	WinNT
#	Modification time:	15. 06. 2019 21:14

#	Program:	/corina/corina34_cracker 3.40 0067  02.08.2006

@<TRIPOS>MOLECULE
ASD07932017
  22   23    0    0    0
SMALL
NO_CHARGES


@<TRIPOS>ATOM
   1 C1            -0.0167     1.3880     0.0070 C.ar    
   2 C2             0.0022    -0.0040    -0.0185 C.ar    
   3 C3            -1.2047    -0.6796    -0.0126 C.ar    
   4 C4            -2.3923     0.0519     0.0184 C.ar    
   5 N5            -2.3699     1.3799     0.0416 N.ar    
   6 C6            -1.2408     2.0511     0.0432 C.ar    
   7 C7            -3.6887    -0.6580     0.0249 C.2     
   8 O8            -3.7163    -1.8722     0.0033 O.2     
   9 O9            -4.8396     0.0415     0.0548 O.3     
  10 O10            1.1445     2.0903     0.0024 O.3     
  11 C11            2.3569     1.3400     0.0977 C.3     
  12 C12            3.5711     1.8582    -0.6757 C.3     
  13 C13            3.5263     1.9797     0.8488 C.3     
  14 H14            0.9374    -0.5436    -0.0426 H       
  15 H15           -1.2275    -1.7591    -0.0322 H       
  16 H16           -1.2622     3.1307     0.0629 H       
  17 H17           -5.6623    -0.4667     0.0579 H       
  18 H18            2.2361     0.2599     0.1800 H       
  19 H19            4.2492     1.1190    -1.1020 H       
  20 H20            3.4450     2.7714    -1.2573 H       
  21 H21            3.3709     2.9729     1.2702 H       
  22 H22            4.1751     1.3204     1.4255 H       
@<TRIPOS>BOND
   1    1    2 ar
   2    1   10 1
   3    1    6 ar
   4    2    3 ar
   5    2   14 1
   6    3    4 ar
   7    3   15 1
   8    4    5 ar
   9    4    7 1
  10    5    6 ar
  11    6   16 1
  12    7    8 2
  13    7    9 1
  14    9   17 1
  15   10   11 1
  16   11   12 1
  17   11   13 1
  18   11   18 1
  19   12   13 1
  20   12   19 1
  21   12   20 1
  22   13   21 1
  23   13   22 1

#	End of record

