#	Name: ASD03240756
#	Creating user name:	WinNT
#	Creation time:	15. 06. 2019 20:35

#	Modifying user name:	WinNT
#	Modification time:	15. 06. 2019 20:35

#	Program:	/corina/corina34_cracker 3.40 0067  02.08.2006

@<TRIPOS>MOLECULE
ASD03240756
  86   92    0    0    0
SMALL
NO_CHARGES


@<TRIPOS>ATOM
   1 C1            -0.0162     1.3406     0.0094 C.2     
   2 N2             0.0021    -0.0041     0.0020 N.2     
   3 C3             1.1202    -0.6827    -0.0123 C.2     
   4 C4             2.3899     0.0407    -0.0205 C.ar    
   5 C5             2.3641     1.4519    -0.0127 C.ar    
   6 N6             1.1344     2.0817     0.0024 N.pl3   
   7 C7             3.6179    -0.6286    -0.0353 C.ar    
   8 C8             4.7783     0.1389    -0.0418 C.ar    
   9 C9             4.6723     1.5432    -0.0333 C.ar    
  10 N10            3.4908     2.1422    -0.0202 N.ar    
  11 N11            0.7735     3.4345     0.0131 N.2     
  12 C12           -0.5349     3.5228     0.0261 C.2     
  13 C13           -1.0721     2.2417     0.0301 C.2     
  14 C14            6.1096    -0.5133    -0.0570 C.ar    
  15 C15            6.4052    -1.5217     0.8589 C.ar    
  16 C16            7.6459    -2.1255     0.8397 C.ar    
  17 C17            8.5956    -1.7316    -0.0857 C.ar    
  18 C18            8.3081    -0.7312    -0.9968 C.ar    
  19 C19            7.0686    -0.1245    -0.9910 C.ar    
  20 C20           -1.3265     4.8050     0.0413 C.3     
  21 C21            5.9041     2.3651    -0.0402 C.ar    
  22 C22            5.9318     3.5795    -0.7260 C.ar    
  23 C23            7.0825     4.3409    -0.7287 C.ar    
  24 C24            8.2073     3.9021    -0.0532 C.ar    
  25 C25            8.1861     2.6985     0.6288 C.ar    
  26 C26            7.0396     1.9309     0.6437 C.ar    
  27 C27            9.4609     4.7383    -0.0606 C.3     
  28 N28            9.4381     5.6652     1.0788 N.3     
  29 C29           10.7381     6.3277     1.2444 C.3     
  30 C30           10.7232     7.1715     2.5211 C.3     
  31 C31            9.6063     8.2145     2.4247 C.3     
  32 C32            8.2697     7.5007     2.2041 C.3     
  33 C33            8.3558     6.6474     0.9366 C.3     
  34 C34            9.5477     9.0093     3.7037 C.2     
  35 N35            8.6343     9.9900     3.8464 N.am    
  36 O36           10.3225     8.7664     4.6046 O.2     
  37 C37            8.5773    10.7626     5.0898 C.3     
  38 C38            9.5852    11.9119     5.0227 C.3     
  39 C39            7.1684    11.3300     5.2736 C.3     
  40 C40            7.1089    12.1369     6.5722 C.3     
  41 C41            5.6999    12.7043     6.7560 C.3     
  42 C42            5.3582    13.6139     5.5741 C.3     
  43 C43            5.4177    12.8070     4.2756 C.3     
  44 C44            6.8267    12.2396     4.0918 C.3     
  45 H45            1.1053    -1.7626    -0.0176 H       
  46 H46            3.6639    -1.7076    -0.0412 H       
  47 H47           -2.1226     1.9916     0.0442 H       
  48 H48            5.6647    -1.8296     1.5823 H       
  49 H49            7.8761    -2.9069     1.5489 H       
  50 H50            9.5654    -2.2067    -0.0968 H       
  51 H51            9.0535    -0.4274    -1.7168 H       
  52 H52            6.8436     0.6534    -1.7057 H       
  53 H53           -1.5275     5.1201    -0.9827 H       
  54 H54           -2.2695     4.6437     0.5635 H       
  55 H55           -0.7550     5.5788     0.5539 H       
  56 H56            5.0544     3.9230    -1.2540 H       
  57 H57            7.1053     5.2811    -1.2595 H       
  58 H58            9.0673     2.3613     1.1543 H       
  59 H59            7.0228     0.9937     1.1801 H       
  60 H60           10.3321     4.0878     0.0175 H       
  61 H61            9.5135     5.3059    -0.9897 H       
  62 H62           11.5230     5.5748     1.3159 H       
  63 H63           10.9296     6.9714     0.3859 H       
  64 H64           10.5454     6.5264     3.3815 H       
  65 H65           11.6829     7.6755     2.6354 H       
  66 H66            9.8043     8.8839     1.5875 H       
  67 H67            8.0534     6.8608     3.0596 H       
  68 H68            7.4766     8.2399     2.0920 H       
  69 H69            8.5585     7.2896     0.0795 H       
  70 H70            7.4104     6.1266     0.7845 H       
  71 H71            8.0146    10.1842     3.1259 H       
  72 H72            8.8208    10.1146     5.9318 H       
  73 H73            9.5428    12.4867     5.9479 H       
  74 H74           10.5889    11.5077     4.8918 H       
  75 H75            9.3417    12.5599     4.1808 H       
  76 H76            6.4504    10.5113     5.3214 H       
  77 H77            7.3523    11.4889     7.4141 H       
  78 H78            7.8269    12.9556     6.5244 H       
  79 H79            4.9819    11.8855     6.8037 H       
  80 H80            5.6575    13.2791     7.6811 H       
  81 H81            4.3544    14.0181     5.7051 H       
  82 H82            6.0762    14.4326     5.5264 H       
  83 H83            4.6997    11.9883     4.3234 H       
  84 H84            5.1743    13.4550     3.4337 H       
  85 H85            7.5447    13.0584     4.0440 H       
  86 H86            6.8691    11.6648     3.1667 H       
@<TRIPOS>BOND
   1    1    2 1
   2    1    6 1
   3    1   13 2
   4    2    3 2
   5    3    4 1
   6    3   45 1
   7    4    5 ar
   8    4    7 ar
   9    5    6 1
  10    5   10 ar
  11    6   11 1
  12    7    8 ar
  13    7   46 1
  14    8    9 ar
  15    8   14 1
  16    9   10 ar
  17    9   21 1
  18   11   12 2
  19   12   13 1
  20   12   20 1
  21   13   47 1
  22   14   15 ar
  23   14   19 ar
  24   15   16 ar
  25   15   48 1
  26   16   17 ar
  27   16   49 1
  28   17   18 ar
  29   17   50 1
  30   18   19 ar
  31   18   51 1
  32   19   52 1
  33   20   53 1
  34   20   54 1
  35   20   55 1
  36   21   22 ar
  37   21   26 ar
  38   22   23 ar
  39   22   56 1
  40   23   24 ar
  41   23   57 1
  42   24   25 ar
  43   24   27 1
  44   25   26 ar
  45   25   58 1
  46   26   59 1
  47   27   28 1
  48   27   60 1
  49   27   61 1
  50   28   29 1
  51   28   33 1
  52   29   30 1
  53   29   62 1
  54   29   63 1
  55   30   31 1
  56   30   64 1
  57   30   65 1
  58   31   32 1
  59   31   34 1
  60   31   66 1
  61   32   33 1
  62   32   67 1
  63   32   68 1
  64   33   69 1
  65   33   70 1
  66   34   35 am
  67   34   36 2
  68   35   37 1
  69   35   71 1
  70   37   38 1
  71   37   39 1
  72   37   72 1
  73   38   73 1
  74   38   74 1
  75   38   75 1
  76   39   40 1
  77   39   44 1
  78   39   76 1
  79   40   41 1
  80   40   77 1
  81   40   78 1
  82   41   42 1
  83   41   79 1
  84   41   80 1
  85   42   43 1
  86   42   81 1
  87   42   82 1
  88   43   44 1
  89   43   83 1
  90   43   84 1
  91   44   85 1
  92   44   86 1

#	End of record

