#	Name: ASD01180052
#	Creating user name:	WinNT
#	Creation time:	15. 06. 2019 19:06

#	Modifying user name:	WinNT
#	Modification time:	15. 06. 2019 19:06

#	Program:	/corina/corina34_cracker 3.40 0067  02.08.2006

@<TRIPOS>MOLECULE
ASD01180052
 116  115    0    0    0
SMALL
NO_CHARGES


@<TRIPOS>ATOM
   1 C1             2.6986     3.2320     3.3192 C.3     
   2 C2             2.5184     1.7464     3.0003 C.3     
   3 C3             1.0302     1.4404     2.8203 C.3     
   4 C4             0.8500    -0.0452     2.5014 C.3     
   5 C5            -0.6382    -0.3512     2.3213 C.3     
   6 C6            -0.8184    -1.8368     2.0025 C.3     
   7 C7            -2.3067    -2.1428     1.8224 C.3     
   8 C8            -2.4842    -3.6060     1.5084 C.2     
   9 C9            -3.2771    -4.3428     2.2463 C.2     
  10 C10           -3.4546    -5.8060     1.9322 C.3     
  11 C11           -3.1306    -6.6374     3.1751 C.3     
  12 C12           -3.3108    -8.1229     2.8562 C.3     
  13 C13           -2.9867    -8.9542     4.0991 C.3     
  14 C14           -3.1642   -10.4174     3.7851 C.2     
  15 O15           -2.9337   -11.3400     4.7324 O.3     
  16 C16           -3.1248   -12.7301     4.3592 C.3     
  17 C17           -1.8119   -13.2972     3.8155 C.3     
  18 O18           -0.8338   -13.3165     4.8571 O.3     
  19 P19            0.6686   -13.8527     4.6395 P.3     
  20 O20            1.5258   -13.6067     5.9799 O.3     
  21 C21            2.9255   -13.8800     6.0698 C.3     
  22 C22            3.4232   -13.5356     7.4751 C.3     
  23 N23            2.8495   -14.4803     8.4429 N.4     
  24 C24            4.1868     3.5380     3.4992 C.3     
  25 O25           -3.5140   -10.7601     2.6805 O.2     
  26 C26           -3.5574   -13.5332     5.5875 C.3     
  27 O27            0.6348   -15.3639     4.3198 O.co2   
  28 O28            1.3216   -13.0921     3.4638 O.co2   
  29 O29           -2.4823   -13.5417     6.5634 O.3     
  30 C30           -2.7028   -14.2086     7.7072 C.2     
  31 C31           -1.6328   -14.2612     8.7671 C.3     
  32 C32           -2.1357   -15.0776     9.9594 C.3     
  33 C33           -1.0494   -15.1310    11.0355 C.3     
  34 C34           -1.5523   -15.9473    12.2278 C.3     
  35 C35           -0.4660   -16.0007    13.3039 C.3     
  36 C36           -0.9689   -16.8170    14.4962 C.3     
  37 C37            0.1175   -16.8704    15.5723 C.3     
  38 C38           -0.3854   -17.6868    16.7646 C.3     
  39 C39            0.7009   -17.7402    17.8407 C.3     
  40 C40            0.1980   -18.5565    19.0330 C.3     
  41 C41            1.2843   -18.6099    20.1091 C.3     
  42 C42            0.7814   -19.4262    21.3014 C.3     
  43 O43           -3.7592   -14.7668     7.8870 O.2     
  44 C44            3.1737   -15.8544     8.0371 C.3     
  45 C45            3.4106   -14.2178     9.7749 C.3     
  46 C46            1.3907   -14.3133     8.4845 C.3     
  47 H47            2.3012     3.8303     2.4994 H       
  48 H48            2.1642     3.4738     4.2379 H       
  49 H49            3.0528     1.5046     2.0816 H       
  50 H50            2.9158     1.1481     3.8201 H       
  51 H51            0.4958     1.6822     3.7390 H       
  52 H52            0.6328     2.0387     2.0005 H       
  53 H53            1.3844    -0.2870     1.5827 H       
  54 H54            1.2474    -0.6435     3.3212 H       
  55 H55           -1.1727    -0.1094     3.2400 H       
  56 H56           -1.0356     0.2472     1.5015 H       
  57 H57           -0.2840    -2.0786     1.0838 H       
  58 H58           -0.4210    -2.4351     2.8223 H       
  59 H59           -2.8411    -1.9010     2.7411 H       
  60 H60           -2.7041    -1.5444     1.0026 H       
  61 H61           -1.9577    -4.0472     0.6750 H       
  62 H62           -3.8036    -3.9017     3.0797 H       
  63 H63           -4.4856    -5.9904     1.6304 H       
  64 H64           -2.7828    -6.0877     1.1214 H       
  65 H65           -2.0995    -6.4530     3.4769 H       
  66 H66           -3.8024    -6.3557     3.9859 H       
  67 H67           -4.3418    -8.3072     2.5545 H       
  68 H68           -2.6390    -8.4046     2.0454 H       
  69 H69           -1.9557    -8.7699     4.4009 H       
  70 H70           -3.6585    -8.6726     4.9099 H       
  71 H71           -3.8953   -12.7975     3.5912 H       
  72 H72           -1.9768   -14.3120     3.4532 H       
  73 H73           -1.4577   -12.6719     2.9960 H       
  74 H74            3.1029   -14.9369     5.8704 H       
  75 H75            3.4612   -13.2770     5.3367 H       
  76 H76            4.5107   -13.6033     7.5021 H       
  77 H77            3.1157   -12.5217     7.7310 H       
  78 H78            4.7213     3.2962     2.5806 H       
  79 H79            4.3152     4.5964     3.7264 H       
  80 H80            4.5843     2.9397     4.3191 H       
  81 H81           -4.4436   -13.0755     6.0272 H       
  82 H82           -3.7865   -14.5565     5.2903 H       
  83 H83           -0.7382   -14.7300     8.3573 H       
  84 H84           -1.3953   -13.2490     9.0942 H       
  85 H85           -3.0304   -14.6088    10.3693 H       
  86 H86           -2.3733   -16.0899     9.6324 H       
  87 H87           -0.1548   -15.5998    10.6257 H       
  88 H88           -0.8118   -14.1187    11.3625 H       
  89 H89           -2.4469   -15.4785    12.6377 H       
  90 H90           -1.7898   -16.9596    11.9008 H       
  91 H91            0.4287   -16.4695    12.8941 H       
  92 H92           -0.2284   -14.9884    13.6309 H       
  93 H93           -1.8635   -16.3483    14.9061 H       
  94 H94           -1.2064   -17.8293    14.1692 H       
  95 H95            1.0121   -17.3392    15.1625 H       
  96 H96            0.3550   -15.8582    15.8993 H       
  97 H97           -1.2801   -17.2180    17.1744 H       
  98 H98           -0.6230   -18.6990    16.4376 H       
  99 H99            1.5955   -18.2089    17.4308 H       
 100 H100           0.9384   -16.7279    18.1677 H       
 101 H101          -0.6967   -18.0877    19.4428 H       
 102 H102          -0.0396   -19.5688    18.7060 H       
 103 H103           2.1790   -19.0787    19.6992 H       
 104 H104           1.5219   -17.5976    20.4361 H       
 105 H105           0.5439   -20.4385    20.9744 H       
 106 H106           1.5553   -19.4643    22.0680 H       
 107 H107          -0.1132   -18.9575    21.7112 H       
 108 H108           4.2562   -15.9783     8.0062 H       
 109 H109           2.7481   -16.5553     8.7552 H       
 110 H110           2.7574   -16.0491     7.0487 H       
 111 H111           3.1701   -13.1982    10.0760 H       
 112 H112           2.9850   -14.9187    10.4930 H       
 113 H113           4.4931   -14.3417     9.7440 H       
 114 H114           0.9579   -14.6640     7.5475 H       
 115 H115           0.9821   -14.8924     9.3126 H       
 116 H116           1.1494   -13.2595     8.6241 H       
@<TRIPOS>BOND
   1    1    2 1
   2    1   24 1
   3    1   47 1
   4    1   48 1
   5    2    3 1
   6    2   49 1
   7    2   50 1
   8    3    4 1
   9    3   51 1
  10    3   52 1
  11    4    5 1
  12    4   53 1
  13    4   54 1
  14    5    6 1
  15    5   55 1
  16    5   56 1
  17    6    7 1
  18    6   57 1
  19    6   58 1
  20    7    8 1
  21    7   59 1
  22    7   60 1
  23    8    9 2
  24    8   61 1
  25    9   10 1
  26    9   62 1
  27   10   11 1
  28   10   63 1
  29   10   64 1
  30   11   12 1
  31   11   65 1
  32   11   66 1
  33   12   13 1
  34   12   67 1
  35   12   68 1
  36   13   14 1
  37   13   69 1
  38   13   70 1
  39   14   15 1
  40   14   25 2
  41   15   16 1
  42   16   17 1
  43   16   26 1
  44   16   71 1
  45   17   18 1
  46   17   72 1
  47   17   73 1
  48   18   19 1
  49   19   20 1
  50   19   27 ar
  51   19   28 ar
  52   20   21 1
  53   21   22 1
  54   21   74 1
  55   21   75 1
  56   22   23 1
  57   22   76 1
  58   22   77 1
  59   23   44 1
  60   23   45 1
  61   23   46 1
  62   24   78 1
  63   24   79 1
  64   24   80 1
  65   26   29 1
  66   26   81 1
  67   26   82 1
  68   29   30 1
  69   30   31 1
  70   30   43 2
  71   31   32 1
  72   31   83 1
  73   31   84 1
  74   32   33 1
  75   32   85 1
  76   32   86 1
  77   33   34 1
  78   33   87 1
  79   33   88 1
  80   34   35 1
  81   34   89 1
  82   34   90 1
  83   35   36 1
  84   35   91 1
  85   35   92 1
  86   36   37 1
  87   36   93 1
  88   36   94 1
  89   37   38 1
  90   37   95 1
  91   37   96 1
  92   38   39 1
  93   38   97 1
  94   38   98 1
  95   39   40 1
  96   39   99 1
  97   39  100 1
  98   40   41 1
  99   40  101 1
 100   40  102 1
 101   41   42 1
 102   41  103 1
 103   41  104 1
 104   42  105 1
 105   42  106 1
 106   42  107 1
 107   44  108 1
 108   44  109 1
 109   44  110 1
 110   45  111 1
 111   45  112 1
 112   45  113 1
 113   46  114 1
 114   46  115 1
 115   46  116 1

#	End of record

