#	Name: ASD01230625
#	Creating user name:	WinNT
#	Creation time:	15. 06. 2019 19:14

#	Modifying user name:	WinNT
#	Modification time:	15. 06. 2019 19:14

#	Program:	/corina/corina34_cracker 3.40 0067  02.08.2006

@<TRIPOS>MOLECULE
ASD01230625
  39   41    0    0    0
SMALL
NO_CHARGES


@<TRIPOS>ATOM
   1 C1            -0.0184     1.5028     0.0103 C.2     
   2 C2             0.0021    -0.0041     0.0020 C.3     
   3 C3             1.2460     2.2559     0.0023 C.ar    
   4 C4             1.2312     3.6543     0.0099 C.ar    
   5 C5             2.4201     4.3527     0.0028 C.ar    
   6 C6             3.6259     3.6734    -0.0119 C.ar    
   7 C7             3.6488     2.2896    -0.0200 C.ar    
   8 C8             2.4685     1.5768    -0.0072 C.ar    
   9 S9             5.9511     3.2652     3.6565 S.o2    
  10 N10            5.1693     3.6495     2.2582 N.am    
  11 C11            5.7419     4.0885     1.2090 C.2     
  12 N12            7.0962     4.2653     1.0821 N.pl3   
  13 C13            8.0431     3.5371     1.9191 C.3     
  14 C14            7.6796     3.7389     3.3915 C.3     
  15 C15            4.9206     4.4446    -0.0196 C.3     
  16 C16            5.7485     4.0599    -1.2483 C.3     
  17 C17            7.0486     4.8506    -1.3074 C.3     
  18 C18            7.5629     5.2262     0.0770 C.3     
  19 O19            5.3506     4.1064     4.6318 O.2     
  20 O20            5.8323     1.8518     3.7429 O.2     
  21 O21           -1.0766     2.0947     0.0185 O.2     
  22 H22            1.0345    -0.3534    -0.0097 H       
  23 H23           -0.4983    -0.3791     0.8948 H       
  24 H24           -0.5153    -0.3696    -0.8850 H       
  25 H25            0.2911     4.1858     0.0210 H       
  26 H26            2.4103     5.4327     0.0083 H       
  27 H27            4.5937     1.7667    -0.0321 H       
  28 H28            2.4881     0.4970    -0.0087 H       
  29 H29            8.0009     2.4753     1.6765 H       
  30 H30            9.0507     3.9117     1.7387 H       
  31 H31            7.8142     4.7871     3.6587 H       
  32 H32            8.3257     3.1194     4.0135 H       
  33 H33            4.7144     5.5149    -0.0303 H       
  34 H34            5.9796     2.9956    -1.2041 H       
  35 H35            5.1670     4.2610    -2.1480 H       
  36 H36            7.8043     4.2502    -1.8139 H       
  37 H37            6.8816     5.7621    -1.8813 H       
  38 H38            7.2013     6.2212     0.3365 H       
  39 H39            8.6528     5.2327     0.0655 H       
@<TRIPOS>BOND
   1    1    2 1
   2    1    3 1
   3    1   21 2
   4    2   22 1
   5    2   23 1
   6    2   24 1
   7    3    4 ar
   8    3    8 ar
   9    4    5 ar
  10    4   25 1
  11    5    6 ar
  12    5   26 1
  13    6    7 ar
  14    6   15 1
  15    7    8 ar
  16    7   27 1
  17    8   28 1
  18    9   10 am
  19    9   14 1
  20    9   19 2
  21    9   20 2
  22   10   11 2
  23   11   12 1
  24   11   15 1
  25   12   13 1
  26   12   18 1
  27   13   14 1
  28   13   29 1
  29   13   30 1
  30   14   31 1
  31   14   32 1
  32   15   16 1
  33   15   33 1
  34   16   17 1
  35   16   34 1
  36   16   35 1
  37   17   18 1
  38   17   36 1
  39   17   37 1
  40   18   38 1
  41   18   39 1

#	End of record

