#	Name: ASD01901062
#	Creating user name:	WinNT
#	Creation time:	15. 06. 2019 19:53

#	Modifying user name:	WinNT
#	Modification time:	15. 06. 2019 19:53

#	Program:	/corina/corina34_cracker 3.40 0067  02.08.2006

@<TRIPOS>MOLECULE
ASD01901062
  40   42    0    0    0
SMALL
NO_CHARGES


@<TRIPOS>ATOM
   1 C1             1.6391     5.0768     1.5194 C.ar    
   2 C2             2.4707     5.6837     2.4582 C.ar    
   3 C3             3.8014     5.3025     2.5248 C.ar    
   4 C4             4.2545     4.3273     1.6499 C.ar    
   5 C5             3.3713     3.7663     0.7416 C.ar    
   6 N6             2.1130     4.1467     0.6997 N.ar    
   7 C7             0.2128     5.4686     1.4396 C.2     
   8 O8            -0.2275     6.3161     2.1911 O.2     
   9 N9            -0.5966     4.8851     0.5336 N.am    
  10 C10           -1.9626     5.1835     0.5218 C.ar    
  11 C11           -2.3971     6.4676     0.8245 C.ar    
  12 C12           -3.7479     6.7591     0.8119 C.ar    
  13 C13           -4.6669     5.7726     0.4980 C.ar    
  14 C14           -4.2367     4.4939     0.1964 C.ar    
  15 C15           -2.8874     4.1980     0.2017 C.ar    
  16 S16           -6.3885     6.1474     0.4834 S.o2    
  17 O17           -6.5383     7.3148    -0.3128 O.2     
  18 O18           -7.0625     4.9270     0.2079 O.2     
  19 N19           -6.8099     6.5763     2.0263 N.am    
  20 C20           -6.7907     5.6218     3.0469 C.ar    
  21 C21           -7.6748     5.7257     4.1148 C.ar    
  22 C22           -7.6527     4.7800     5.1219 C.ar    
  23 C23           -6.7524     3.7314     5.0680 C.ar    
  24 C24           -5.8718     3.6259     4.0075 C.ar    
  25 C25           -5.8925     4.5644     2.9939 C.ar    
  26 Cl26          -8.8046     7.0420     4.1832 Cl      
  27 Cl27          -4.2927     8.3633     1.1905 Cl      
  28 H28            2.0839     6.4407     3.1244 H       
  29 H29            4.4704     5.7552     3.2418 H       
  30 H30            5.2859     4.0081     1.6759 H       
  31 H31            3.7211     3.0065     0.0583 H       
  32 H32           -0.2315     4.2582    -0.1103 H       
  33 H33           -1.6801     7.2372     1.0697 H       
  34 H34           -4.9562     3.7264    -0.0477 H       
  35 H35           -2.5521     3.1999    -0.0387 H       
  36 H36           -7.0701     7.4901     2.2218 H       
  37 H37           -8.3388     4.8599     5.9522 H       
  38 H38           -6.7371     2.9934     5.8565 H       
  39 H39           -5.1699     2.8059     3.9689 H       
  40 H40           -5.2074     4.4784     2.1634 H       
@<TRIPOS>BOND
   1    1    2 ar
   2    1    6 ar
   3    1    7 1
   4    2    3 ar
   5    2   28 1
   6    3    4 ar
   7    3   29 1
   8    4    5 ar
   9    4   30 1
  10    5    6 ar
  11    5   31 1
  12    7    8 2
  13    7    9 am
  14    9   10 1
  15    9   32 1
  16   10   11 ar
  17   10   15 ar
  18   11   12 ar
  19   11   33 1
  20   12   13 ar
  21   12   27 1
  22   13   14 ar
  23   13   16 1
  24   14   15 ar
  25   14   34 1
  26   15   35 1
  27   16   17 2
  28   16   18 2
  29   16   19 am
  30   19   20 1
  31   19   36 1
  32   20   21 ar
  33   20   25 ar
  34   21   22 ar
  35   21   26 1
  36   22   23 ar
  37   22   37 1
  38   23   24 ar
  39   23   38 1
  40   24   25 ar
  41   24   39 1
  42   25   40 1

#	End of record

