#	Name: ASD03540094
#	Creating user name:	WinNT
#	Creation time:	15. 06. 2019 20:42

#	Modifying user name:	WinNT
#	Modification time:	15. 06. 2019 20:42

#	Program:	/corina/corina34_cracker 3.40 0067  02.08.2006

@<TRIPOS>MOLECULE
ASD03540094
  52   54    0    0    0
SMALL
NO_CHARGES


@<TRIPOS>ATOM
   1 C1            -0.0180     1.4732     0.0101 C.2     
   2 C2             0.0021    -0.0041     0.0020 C.ar    
   3 C3             1.2173    -0.6860    -0.0132 C.ar    
   4 C4             1.2270    -2.0795    -0.0203 C.ar    
   5 C5             2.5105    -2.8109    -0.0360 C.2     
   6 C6             0.0198    -2.7834    -0.0121 C.ar    
   7 C7            -1.1806    -2.1014     0.0026 C.ar    
   8 C8            -1.1975    -0.7208     0.0155 C.ar    
   9 O9             1.0256     2.0948     0.0035 O.2     
  10 O10           -1.1936     2.1308     0.0193 O.3     
  11 O11            3.5590    -2.1976    -0.0428 O.2     
  12 O12            2.5181    -4.1579    -0.0429 O.3     
  13 C13           -1.1373     3.5817     0.0269 C.3     
  14 C14           -2.5375     4.1387     0.0366 C.ar    
  15 C15           -3.1732     4.3873     1.2379 C.ar    
  16 C16           -4.4620     4.9000     1.2461 C.ar    
  17 C17           -5.1097     5.1619     0.0472 C.ar    
  18 C18           -4.4698     4.9116    -1.1510 C.ar    
  19 C19           -3.1828     4.4058    -1.1565 C.ar    
  20 O20           -5.0896     5.1450     2.4264 O.3     
  21 C21           -6.4158     5.6729     2.3586 C.3     
  22 C22            3.8155    -4.8098    -0.0583 C.3     
  23 C23            3.6264    -6.3049    -0.0640 C.ar    
  24 C24            3.5286    -6.9836    -1.2635 C.ar    
  25 C25            3.3546    -8.3598    -1.2681 C.ar    
  26 C26            3.2792    -9.0512    -0.0674 C.ar    
  27 C27            3.3776    -8.3680     1.1289 C.ar    
  28 C28            3.5567    -6.9968     1.1308 C.ar    
  29 O29            3.2577    -9.0297    -2.4465 O.3     
  30 C30            3.0795   -10.4457    -2.3751 C.3     
  31 H31            2.1473    -0.1370    -0.0199 H       
  32 H32            0.0259    -3.8634    -0.0176 H       
  33 H33           -2.1106    -2.6504     0.0085 H       
  34 H34           -2.1399    -0.1936     0.0318 H       
  35 H35           -0.6055     3.9200     0.9162 H       
  36 H36           -0.6140     3.9297    -0.8637 H       
  37 H37           -2.6671     4.1823     2.1697 H       
  38 H38           -6.1133     5.5608     0.0510 H       
  39 H39           -4.9736     5.1150    -2.0844 H       
  40 H40           -2.6824     4.2152    -2.0944 H       
  41 H41           -6.4007     6.6268     1.8314 H       
  42 H42           -7.0587     4.9729     1.8249 H       
  43 H43           -6.7996     5.8216     3.3679 H       
  44 H44            4.3625    -4.5093    -0.9519 H       
  45 H45            4.3791    -4.5182     0.8279 H       
  46 H46            3.5873    -6.4432    -2.1967 H       
  47 H47            3.1434   -10.1226    -0.0684 H       
  48 H48            3.3186    -8.9057     2.0637 H       
  49 H49            3.6381    -6.4650     2.0672 H       
  50 H50            3.0172   -10.8554    -3.3833 H       
  51 H51            3.9255   -10.8925    -1.8529 H       
  52 H52            2.1597   -10.6693    -1.8346 H       
@<TRIPOS>BOND
   1    1    2 1
   2    1    9 2
   3    1   10 1
   4    2    3 ar
   5    2    8 ar
   6    3    4 ar
   7    3   31 1
   8    4    5 1
   9    4    6 ar
  10    5   11 2
  11    5   12 1
  12    6    7 ar
  13    6   32 1
  14    7    8 ar
  15    7   33 1
  16    8   34 1
  17   10   13 1
  18   12   22 1
  19   13   14 1
  20   13   35 1
  21   13   36 1
  22   14   15 ar
  23   14   19 ar
  24   15   16 ar
  25   15   37 1
  26   16   17 ar
  27   16   20 1
  28   17   18 ar
  29   17   38 1
  30   18   19 ar
  31   18   39 1
  32   19   40 1
  33   20   21 1
  34   21   41 1
  35   21   42 1
  36   21   43 1
  37   22   23 1
  38   22   44 1
  39   22   45 1
  40   23   24 ar
  41   23   28 ar
  42   24   25 ar
  43   24   46 1
  44   25   26 ar
  45   25   29 1
  46   26   27 ar
  47   26   47 1
  48   27   28 ar
  49   27   48 1
  50   28   49 1
  51   29   30 1
  52   30   50 1
  53   30   51 1
  54   30   52 1

#	End of record

