#	Name: ASD01820187
#	Creating user name:	WinNT
#	Creation time:	15. 06. 2019 19:36

#	Modifying user name:	WinNT
#	Modification time:	15. 06. 2019 19:36

#	Program:	/corina/corina34_cracker 3.40 0067  02.08.2006

@<TRIPOS>MOLECULE
ASD01820187
 102  105    0    0    0
SMALL
NO_CHARGES


@<TRIPOS>ATOM
   1 C1            -5.7127    -0.9233    -1.7160 C.ar    
   2 C2            -5.4184    -2.2654    -1.4003 C.ar    
   3 C3            -6.3507    -2.6394    -0.3158 C.2     
   4 N4            -7.1264    -1.5776    -0.0322 N.am    
   5 C5            -6.8103    -0.5259    -0.8092 C.2     
   6 C6            -8.1744    -1.5665     0.9914 C.3     
   7 C7            -7.5774    -1.1211     2.3278 C.3     
   8 C8            -8.6719    -1.1096     3.3968 C.3     
   9 N9            -8.0677    -1.3236     4.7186 N.4     
  10 C10           -9.0848    -1.1253     5.7598 C.3     
  11 C11           -8.4555    -1.3482     7.1365 C.3     
  12 C12           -9.5149    -1.1417     8.2209 C.3     
  13 C13           -8.8856    -1.3646     9.5976 C.3     
  14 C14           -9.9449    -1.1581    10.6821 C.3     
  15 C15           -9.3156    -1.3809    12.0588 C.3     
  16 N16          -10.3327    -1.1827    13.1000 N.4     
  17 C17           -9.7285    -1.3966    14.4218 C.3     
  18 C18          -10.8322    -1.6304    15.4553 C.3     
  19 N19          -11.3222    -1.6504    17.8513 N.am    
  20 O20           -7.3421     0.5654    -0.7758 O.2     
  21 O21           -6.4069    -3.7238     0.2281 O.2     
  22 C22          -10.2654    -1.4266    16.8617 C.3     
  23 C23          -11.5999    -2.8412    18.4122 C.2     
  24 C24          -12.7239    -2.6665    19.3562 C.ar    
  25 C25          -13.0684    -1.3007    19.2971 C.ar    
  26 C26          -12.1388    -0.6910    18.3229 C.2     
  27 C27          -13.4221    -3.5174    20.1973 C.ar    
  28 C28          -14.4557    -3.0189    20.9757 C.ar    
  29 C29          -14.7937    -1.6803    20.9174 C.ar    
  30 C30          -14.1034    -0.8168    20.0805 C.ar    
  31 O31          -11.0238    -3.8851    18.1813 O.2     
  32 O32          -12.1200     0.4789    17.9976 O.2     
  33 C33          -10.8575     0.1869    13.0174 C.3     
  34 C34          -11.4292    -2.1400    12.9020 C.3     
  35 C35           -7.5429    -2.6932     4.8012 C.3     
  36 C36           -6.9712    -0.3663     4.9165 C.3     
  37 C37           -4.9967    -0.2765    -2.7100 C.ar    
  38 C38           -3.9949    -0.9546    -3.3876 C.ar    
  39 C39           -3.7065    -2.2701    -3.0781 C.ar    
  40 C40           -4.4151    -2.9303    -2.0859 C.ar    
  41 C41           -3.2156    -0.2522    -4.4694 C.3     
  42 C42          -15.9204    -1.1552    21.7694 C.3     
  43 C43           -6.4708    -2.0934     2.7414 C.3     
  44 C44           -6.9924     0.2850     2.1817 C.3     
  45 C45          -11.9728    -0.6388    15.2165 C.3     
  46 C46          -11.3623    -3.0593    15.3211 C.3     
  47 H47           -8.9628    -0.8738     0.6967 H       
  48 H48           -8.5912    -2.5683     1.0954 H       
  49 H49           -9.1835    -0.1472     3.3826 H       
  50 H50           -9.3884    -1.9050     3.1918 H       
  51 H51           -9.4742    -0.1091     5.6985 H       
  52 H52           -9.8984    -1.8357     5.6129 H       
  53 H53           -8.0661    -2.3644     7.1978 H       
  54 H54           -7.6419    -0.6379     7.2834 H       
  55 H55           -9.9043    -0.1255     8.1597 H       
  56 H56          -10.3285    -1.8520     8.0741 H       
  57 H57           -8.4962    -2.3808     9.6589 H       
  58 H58           -8.0720    -0.6542     9.7445 H       
  59 H59          -10.3343    -0.1418    10.6208 H       
  60 H60          -10.7585    -1.8684    10.5352 H       
  61 H61           -8.9262    -2.3971    12.1200 H       
  62 H62           -8.5020    -0.6706    12.2056 H       
  63 H63           -9.0744    -2.2677    14.3855 H       
  64 H64           -9.1481    -0.5178    14.7025 H       
  65 H65           -9.4529    -2.1330    17.0318 H       
  66 H66           -9.8878    -0.4086    16.9573 H       
  67 H67          -13.1627    -4.5646    20.2464 H       
  68 H68          -15.0006    -3.6815    21.6317 H       
  69 H69          -14.3716     0.2285    20.0393 H       
  70 H70          -11.4009     0.3119    12.0808 H       
  71 H71          -11.5307     0.3692    13.8551 H       
  72 H72          -10.0304     0.8958    13.0551 H       
  73 H73          -11.0405    -3.1562    12.9674 H       
  74 H74          -12.1859    -1.9901    13.6722 H       
  75 H75          -11.8749    -1.9839    11.9196 H       
  76 H76           -6.5289    -2.7184     4.4021 H       
  77 H77           -7.5318    -3.0158     5.8423 H       
  78 H78           -8.1787    -3.3615     4.2204 H       
  79 H79           -7.1891     0.5532     4.3732 H       
  80 H80           -6.8694    -0.1451     5.9790 H       
  81 H81           -6.0415    -0.7966     4.5443 H       
  82 H82           -5.2180     0.7515    -2.9563 H       
  83 H83           -2.9239    -2.7876    -3.6130 H       
  84 H84           -4.1852    -3.9585    -1.8481 H       
  85 H85           -2.3424     0.2320    -4.0322 H       
  86 H86           -2.8929    -0.9790    -5.2149 H       
  87 H87           -3.8478     0.4984    -4.9437 H       
  88 H88          -15.5262    -0.8276    22.7314 H       
  89 H89          -16.3951    -0.3133    21.2655 H       
  90 H90          -16.6547    -1.9450    21.9276 H       
  91 H91           -5.7418    -2.1782     1.9355 H       
  92 H92           -5.9778    -1.7220     3.6397 H       
  93 H93           -6.9045    -3.0728     2.9435 H       
  94 H94           -7.7963     0.9944     1.9851 H       
  95 H95           -6.4799     0.5628     3.1027 H       
  96 H96           -6.2842     0.2997     1.3532 H       
  97 H97          -12.2992    -0.7036    14.1785 H       
  98 H98          -12.8071    -0.8792    15.8754 H       
  99 H99          -11.6246     0.3727    15.4254 H       
 100 H100         -10.5361    -3.7638    15.4172 H       
 101 H101         -12.0954    -3.2500    16.1048 H       
 102 H102         -11.8329    -3.1822    14.3456 H       
@<TRIPOS>BOND
   1    1    2 ar
   2    1   37 ar
   3    1    5 1
   4    2    3 1
   5    2   40 ar
   6    3    4 am
   7    3   21 2
   8    4    5 am
   9    4    6 1
  10    5   20 2
  11    6    7 1
  12    6   47 1
  13    6   48 1
  14    7    8 1
  15    7   43 1
  16    7   44 1
  17    8    9 1
  18    8   49 1
  19    8   50 1
  20    9   10 1
  21    9   35 1
  22    9   36 1
  23   10   11 1
  24   10   51 1
  25   10   52 1
  26   11   12 1
  27   11   53 1
  28   11   54 1
  29   12   13 1
  30   12   55 1
  31   12   56 1
  32   13   14 1
  33   13   57 1
  34   13   58 1
  35   14   15 1
  36   14   59 1
  37   14   60 1
  38   15   16 1
  39   15   61 1
  40   15   62 1
  41   16   17 1
  42   16   33 1
  43   16   34 1
  44   17   18 1
  45   17   63 1
  46   17   64 1
  47   18   22 1
  48   18   45 1
  49   18   46 1
  50   19   23 am
  51   19   22 1
  52   19   26 am
  53   22   65 1
  54   22   66 1
  55   23   24 1
  56   23   31 2
  57   24   25 ar
  58   24   27 ar
  59   25   26 1
  60   25   30 ar
  61   26   32 2
  62   27   28 ar
  63   27   67 1
  64   28   29 ar
  65   28   68 1
  66   29   30 ar
  67   29   42 1
  68   30   69 1
  69   33   70 1
  70   33   71 1
  71   33   72 1
  72   34   73 1
  73   34   74 1
  74   34   75 1
  75   35   76 1
  76   35   77 1
  77   35   78 1
  78   36   79 1
  79   36   80 1
  80   36   81 1
  81   37   38 ar
  82   37   82 1
  83   38   39 ar
  84   38   41 1
  85   39   40 ar
  86   39   83 1
  87   40   84 1
  88   41   85 1
  89   41   86 1
  90   41   87 1
  91   42   88 1
  92   42   89 1
  93   42   90 1
  94   43   91 1
  95   43   92 1
  96   43   93 1
  97   44   94 1
  98   44   95 1
  99   44   96 1
 100   45   97 1
 101   45   98 1
 102   45   99 1
 103   46  100 1
 104   46  101 1
 105   46  102 1

#	End of record

