#	Name: ASD01913394
#	Creating user name:	WinNT
#	Creation time:	15. 06. 2019 20:01

#	Modifying user name:	WinNT
#	Modification time:	15. 06. 2019 20:01

#	Program:	/corina/corina34_cracker 3.40 0067  02.08.2006

@<TRIPOS>MOLECULE
ASD01913394
  39   41    0    0    0
SMALL
NO_CHARGES


@<TRIPOS>ATOM
   1 C1            -0.5466     1.3745    -1.0023 C.ar    
   2 C2            -0.5214    -0.0181    -0.9883 C.ar    
   3 C3             0.1811    -0.6894    -1.9816 C.ar    
   4 N4             0.8155    -0.0217    -2.9241 N.ar    
   5 C5             0.8109     1.2966    -2.9650 C.ar    
   6 C6             0.1341     2.0348    -2.0122 C.ar    
   7 C7            -1.2543    -2.1243    -0.0476 C.ar    
   8 C8            -0.2688    -2.8896     0.5646 C.ar    
   9 C9            -0.3290    -4.2709     0.5152 C.ar    
  10 C10           -1.3685    -4.8980    -0.1433 C.ar    
  11 C11           -2.3631    -4.1375    -0.7613 C.ar    
  12 C12           -2.3024    -2.7450    -0.7109 C.ar    
  13 C13           -3.4765    -4.8060    -1.4672 C.2     
  14 N14           -3.5329    -6.1518    -1.5149 N.am    
  15 C15           -4.5791    -6.7799    -2.1782 C.2     
  16 O16           -4.3414    -4.1420    -2.0045 O.2     
  17 N17           -1.1923    -0.7295     0.0100 N.pl3   
  18 Cl18           0.9063    -5.2189     1.2827 Cl      
  19 C19           -1.8305    -0.0130     1.1170 C.3     
  20 S20           -5.8583    -5.9730    -2.9753 S.3     
  21 C21           -6.5634    -7.5211    -3.4335 C.2     
  22 C22           -5.7828    -8.4902    -2.9516 C.2     
  23 N23           -4.7248    -8.0635    -2.2877 N.2     
  24 C24           -6.0821    -9.9533    -3.1536 C.3     
  25 H25           -1.0871     1.9258    -0.2471 H       
  26 H26            0.2077    -1.7691    -1.9810 H       
  27 H27            1.3434     1.8065    -3.7542 H       
  28 H28            0.1363     3.1139    -2.0544 H       
  29 H29            0.5467    -2.4044     1.0803 H       
  30 H30           -1.4119    -5.9765    -0.1805 H       
  31 H31           -3.0693    -2.1519    -1.1869 H       
  32 H32           -2.8427    -6.6816    -1.0861 H       
  33 H33           -2.8599     0.2259     0.8498 H       
  34 H34           -1.8227    -0.6403     2.0083 H       
  35 H35           -1.2837     0.9086     1.3165 H       
  36 H36           -7.4692    -7.6613    -4.0047 H       
  37 H37           -5.6071   -10.2979    -4.0721 H       
  38 H38           -5.6956   -10.5233    -2.3087 H       
  39 H39           -7.1602   -10.0970    -3.2261 H       
@<TRIPOS>BOND
   1    1    2 ar
   2    1    6 ar
   3    1   25 1
   4    2    3 ar
   5    2   17 1
   6    3    4 ar
   7    3   26 1
   8    4    5 ar
   9    5    6 ar
  10    5   27 1
  11    6   28 1
  12    7    8 ar
  13    7   12 ar
  14    7   17 1
  15    8    9 ar
  16    8   29 1
  17    9   10 ar
  18    9   18 1
  19   10   11 ar
  20   10   30 1
  21   11   12 ar
  22   11   13 1
  23   12   31 1
  24   13   14 am
  25   13   16 2
  26   14   15 1
  27   14   32 1
  28   15   20 1
  29   15   23 2
  30   17   19 1
  31   19   33 1
  32   19   34 1
  33   19   35 1
  34   20   21 1
  35   21   22 2
  36   21   36 1
  37   22   23 1
  38   22   24 1
  39   24   37 1
  40   24   38 1
  41   24   39 1

#	End of record

