#	Name: ASD04910040
#	Creating user name:	WinNT
#	Creation time:	15. 06. 2019 20:55

#	Modifying user name:	WinNT
#	Modification time:	15. 06. 2019 20:55

#	Program:	/corina/corina34_cracker 3.40 0067  02.08.2006

@<TRIPOS>MOLECULE
ASD04910040
  64   67    0    0    0
SMALL
NO_CHARGES


@<TRIPOS>ATOM
   1 C1             4.1995    -1.2584    -7.0124 C.2     
   2 C2             3.4741    -2.1819    -6.0679 C.3     
   3 C3             4.2620    -2.2967    -4.7613 C.3     
   4 O4             5.2398    -0.7448    -6.6751 O.2     
   5 O5             3.6926    -1.0108    -8.2304 O.3     
   6 C6             4.0686    -3.4474    -2.6223 C.2     
   7 C7             3.3590    -4.3509    -1.6983 C.ar    
   8 C8             2.0976    -4.8604    -2.0280 C.ar    
   9 C9             1.4735    -5.7041    -1.1268 C.ar    
  10 C10            2.1060    -6.0183     0.0633 C.ar    
  11 N11            3.2945    -5.5281     0.3557 N.ar    
  12 C12            3.9390    -4.7209    -0.4730 C.ar    
  13 O13            5.1156    -2.9305    -2.2828 O.2     
  14 N14            3.5568    -3.1945    -3.8431 N.am    
  15 N15            5.1866    -4.2348    -0.1282 N.3     
  16 C16            5.1238    -3.4608     1.1188 C.3     
  17 C17            3.0025    -2.1265     1.1760 C.ar    
  18 C18            4.3509    -2.1889     0.8822 C.ar    
  19 C19            4.9862    -1.0678     0.3674 C.ar    
  20 C20            4.2391     0.0802     0.1659 C.ar    
  21 C21            2.8870     0.0711     0.4839 C.ar    
  22 N22            2.3170    -1.0183     0.9731 N.ar    
  23 C23            2.5376     2.3815    -0.2927 C.2     
  24 N24            1.5419     3.2248    -0.2979 N.2     
  25 C25            0.4691     2.6502     0.2667 C.2     
  26 C26            0.8074     1.4013     0.6384 C.2     
  27 N27            2.1211     1.2241     0.2856 N.pl3   
  28 C28           -0.8814     3.2922     0.4531 C.3     
  29 F29           -0.8877     4.5509    -0.1575 F       
  30 F30           -1.8653     2.4863    -0.1297 F       
  31 F31           -1.1451     3.4354     1.8196 F       
  32 C32            6.1656    -5.3249    -0.0224 C.3     
  33 C33            6.1176    -6.1784    -1.2913 C.3     
  34 C34            7.1372    -7.3138    -1.1811 C.3     
  35 C35            8.5397    -6.7255    -1.0149 C.3     
  36 C36            8.5877    -5.8720     0.2540 C.3     
  37 C37            7.5681    -4.7366     0.1438 C.3     
  38 H38            2.4816    -1.7824    -5.8597 H       
  39 H39            3.3807    -3.1676    -6.5236 H       
  40 H40            5.2545    -2.6963    -4.9695 H       
  41 H41            4.3554    -1.3110    -4.3055 H       
  42 H42            4.1936    -0.4120    -8.8009 H       
  43 H43            1.6232    -4.6008    -2.9628 H       
  44 H44            0.4998    -6.1143    -1.3501 H       
  45 H45            1.6168    -6.6769     0.7657 H       
  46 H46            2.7216    -3.6068    -4.1139 H       
  47 H47            4.6256    -4.0509     1.8880 H       
  48 H48            6.1344    -3.2164     1.4460 H       
  49 H49            2.5023    -2.9976     1.5727 H       
  50 H50            6.0395    -1.0902     0.1297 H       
  51 H51            4.7014     0.9711    -0.2329 H       
  52 H52            3.5255     2.5699    -0.6862 H       
  53 H53            0.1674     0.6780     1.1218 H       
  54 H54            5.9269    -5.9450     0.8418 H       
  55 H55            5.1184    -6.5975    -1.4097 H       
  56 H56            6.3562    -5.5584    -2.1554 H       
  57 H57            6.8985    -7.9339    -0.3170 H       
  58 H58            7.1030    -7.9218    -2.0852 H       
  59 H59            9.2661    -7.5344    -0.9365 H       
  60 H60            8.7784    -6.1055    -1.8791 H       
  61 H61            8.3491    -6.4921     1.1181 H       
  62 H62            9.5869    -5.4529     0.3724 H       
  63 H63            7.8068    -4.1166    -0.7203 H       
  64 H64            7.6023    -4.1286     1.0478 H       
@<TRIPOS>BOND
   1    1    2 1
   2    1    4 2
   3    1    5 1
   4    2    3 1
   5    2   38 1
   6    2   39 1
   7    3   14 1
   8    3   40 1
   9    3   41 1
  10    5   42 1
  11    6    7 1
  12    6   13 2
  13    6   14 am
  14    7    8 ar
  15    7   12 ar
  16    8    9 ar
  17    8   43 1
  18    9   10 ar
  19    9   44 1
  20   10   11 ar
  21   10   45 1
  22   11   12 ar
  23   12   15 1
  24   14   46 1
  25   15   16 1
  26   15   32 1
  27   16   18 1
  28   16   47 1
  29   16   48 1
  30   17   18 ar
  31   17   22 ar
  32   17   49 1
  33   18   19 ar
  34   19   20 ar
  35   19   50 1
  36   20   21 ar
  37   20   51 1
  38   21   22 ar
  39   21   27 1
  40   23   24 2
  41   23   27 1
  42   23   52 1
  43   24   25 1
  44   25   26 2
  45   25   28 1
  46   26   27 1
  47   26   53 1
  48   28   29 1
  49   28   30 1
  50   28   31 1
  51   32   33 1
  52   32   37 1
  53   32   54 1
  54   33   34 1
  55   33   55 1
  56   33   56 1
  57   34   35 1
  58   34   57 1
  59   34   58 1
  60   35   36 1
  61   35   59 1
  62   35   60 1
  63   36   37 1
  64   36   61 1
  65   36   62 1
  66   37   63 1
  67   37   64 1

#	End of record

