#	Name: ASD03092950
#	Creating user name:	WinNT
#	Creation time:	15. 06. 2019 20:33

#	Modifying user name:	WinNT
#	Modification time:	15. 06. 2019 20:33

#	Program:	/corina/corina34_cracker 3.40 0067  02.08.2006

@<TRIPOS>MOLECULE
ASD03092950
  52   55    0    0    0
SMALL
NO_CHARGES


@<TRIPOS>ATOM
   1 F1            -4.8895     6.6734    -1.8167 F       
   2 C2            -5.0362     7.8747    -1.1149 C.3     
   3 F3            -3.9093     8.6771    -1.3232 F       
   4 F4            -6.1765     8.5448    -1.5710 F       
   5 C5            -5.1800     7.5827     0.3565 C.ar    
   6 C6            -6.4357     7.3740     0.8981 C.ar    
   7 C7            -6.5733     7.1062     2.2449 C.ar    
   8 C8            -5.4441     7.0457     3.0596 C.ar    
   9 C9            -4.1814     7.2562     2.5084 C.ar    
  10 C10           -4.0553     7.5186     1.1593 C.ar    
  11 C11           -5.5856     6.7587     4.5079 C.2     
  12 N12           -6.6012     7.1567     5.3014 N.2     
  13 C13           -6.3943     6.7240     6.5133 C.2     
  14 N14           -5.2290     6.0277     6.5390 N.pl3   
  15 C15           -4.6334     5.3751     7.7076 C.3     
  16 H16           -3.6895     4.8989     7.4423 H       
  17 C17           -4.4295     6.3934     8.8604 C.3     
  18 C18           -4.4749     5.4695    10.1030 C.3     
  19 N19           -5.4944     4.4543     9.7815 N.am    
  20 C20           -5.6109     4.3481     8.3168 C.3     
  21 C21           -6.2004     3.7384    10.6790 C.2     
  22 O22           -5.9567     3.8405    11.8627 O.2     
  23 C23           -7.2925     2.8110    10.2117 C.3     
  24 C24           -6.7231     1.4023    10.0320 C.3     
  25 C25           -7.8318     0.4608     9.5576 C.3     
  26 C26           -8.9534     0.4287    10.5978 C.3     
  27 F27           -9.9672    -0.4322    10.1640 F       
  28 F28           -8.4445    -0.0278    11.8183 F       
  29 C29           -9.5228     1.8374    10.7775 C.3     
  30 C30           -8.4140     2.7789    11.2519 C.3     
  31 C31           -4.7176     6.0424     5.2714 C.2     
  32 Cl32          -3.2437     5.2947     4.7399 Cl      
  33 H33           -7.3100     7.4212     0.2658 H       
  34 H34           -7.5542     6.9442     2.6668 H       
  35 H35           -3.3030     7.2104     3.1350 H       
  36 H36           -3.0771     7.6782     0.7304 H       
  37 H37           -7.0437     6.8925     7.3595 H       
  38 H38           -3.4624     6.8892     8.7773 H       
  39 H39           -5.2396     7.1223     8.8857 H       
  40 H40           -3.5053     4.9970    10.2600 H       
  41 H41           -4.7691     6.0361    10.9865 H       
  42 H42           -6.6307     4.5791     8.0089 H       
  43 H43           -5.3423     3.3428     7.9922 H       
  44 H44           -7.6890     3.1667     9.2608 H       
  45 H45           -5.9241     1.4252     9.2909 H       
  46 H46           -6.3266     1.0466    10.9830 H       
  47 H47           -8.2284     0.8165     8.6066 H       
  48 H48           -7.4262    -0.5428     9.4295 H       
  49 H49           -9.9193     2.1931     9.8266 H       
  50 H50          -10.3218     1.8145    11.5186 H       
  51 H51           -8.0175     2.4232    12.2029 H       
  52 H52           -8.8196     3.7825    11.3800 H       
@<TRIPOS>BOND
   1    1    2 1
   2    2    3 1
   3    2    4 1
   4    2    5 1
   5    5   10 ar
   6    5    6 ar
   7    6    7 ar
   8    6   33 1
   9    7    8 ar
  10    7   34 1
  11    8    9 ar
  12    8   11 1
  13    9   10 ar
  14    9   35 1
  15   10   36 1
  16   11   31 2
  17   11   12 1
  18   12   13 2
  19   13   14 1
  20   13   37 1
  21   14   15 1
  22   14   31 1
  23   15   16 1
  24   15   20 1
  25   15   17 1
  26   17   18 1
  27   17   38 1
  28   17   39 1
  29   18   19 1
  30   18   40 1
  31   18   41 1
  32   19   20 1
  33   19   21 am
  34   20   42 1
  35   20   43 1
  36   21   22 2
  37   21   23 1
  38   23   30 1
  39   23   24 1
  40   23   44 1
  41   24   25 1
  42   24   45 1
  43   24   46 1
  44   25   26 1
  45   25   47 1
  46   25   48 1
  47   26   27 1
  48   26   28 1
  49   26   29 1
  50   29   30 1
  51   29   49 1
  52   29   50 1
  53   30   51 1
  54   30   52 1
  55   31   32 1

#	End of record

