#	Name: ASD00170021
#	Creating user name:	WinNT
#	Creation time:	15. 06. 2019 18:31

#	Modifying user name:	WinNT
#	Modification time:	15. 06. 2019 18:31

#	Program:	/corina/corina34_cracker 3.40 0067  02.08.2006

@<TRIPOS>MOLECULE
ASD00170021
  37   39    0    0    0
SMALL
NO_CHARGES


@<TRIPOS>ATOM
   1 C1            -0.0663     1.3178    -0.3257 C.2     
   2 N2            -0.0445    -0.0060    -0.3080 N.2     
   3 N3            -1.0657    -0.7135     0.0084 N.am    
   4 C4            -2.2426    -0.1603     0.3477 C.2     
   5 C5            -2.3728     1.2617     0.3605 C.2     
   6 C6            -1.2504     2.0181     0.0196 C.2     
   7 O7            -3.1907    -0.8662     0.6416 O.2     
   8 C8            -3.5186     2.0978     0.6859 C.2     
   9 S9            -3.1110     3.7944     0.5344 S.3     
  10 C10           -1.5102     3.4609     0.0703 C.2     
  11 N11           -4.7201     1.6335     1.0512 N.pl3   
  12 C12            1.1534     2.0710    -0.7020 C.2     
  13 O13            2.2808     1.4089    -1.0250 O.3     
  14 O14            1.1362     3.2848    -0.7190 O.2     
  15 C15           -0.9520    -2.0991    -0.0001 C.ar    
  16 C16           -0.3978    -2.7478    -1.1010 C.ar    
  17 C17           -0.2866    -4.1231    -1.1047 C.ar    
  18 C18           -0.7247    -4.8579    -0.0168 C.ar    
  19 C19           -1.2761    -4.2178     1.0795 C.ar    
  20 C20           -1.3866    -2.8425     1.0946 C.ar    
  21 C21            3.4368     2.2112    -1.3833 C.3     
  22 C22            4.6129     1.2910    -1.7161 C.3     
  23 N23           -0.6036    -6.3331    -0.0258 N.pl3   
  24 O24           -0.0797    -6.9444    -1.0681 O.2     
  25 O25           -1.0199    -7.0344     1.0083 O.2     
  26 H26           -0.7751     4.2181    -0.1597 H       
  27 H27           -4.8722     0.6776     1.1135 H       
  28 H28           -5.4384     2.2532     1.2535 H       
  29 H29           -0.0559    -2.1753    -1.9506 H       
  30 H30            0.1427    -4.6270    -1.9581 H       
  31 H31           -1.6166    -4.7953     1.9262 H       
  32 H32           -1.8167    -2.3438     1.9506 H       
  33 H33            3.1982     2.8246    -2.2521 H       
  34 H34            3.7052     2.8557    -0.5462 H       
  35 H35            5.4807     1.8933    -1.9850 H       
  36 H36            4.8515     0.6776    -0.8472 H       
  37 H37            4.3445     0.6465    -2.5531 H       
@<TRIPOS>BOND
   1    1    2 2
   2    1   12 1
   3    1    6 1
   4    2    3 1
   5    3    4 am
   6    3   15 1
   7    4    5 1
   8    4    7 2
   9    5    6 1
  10    5    8 2
  11    6   10 2
  12    8    9 1
  13    8   11 1
  14    9   10 1
  15   10   26 1
  16   11   27 1
  17   11   28 1
  18   12   13 1
  19   12   14 2
  20   13   21 1
  21   15   16 ar
  22   15   20 ar
  23   16   17 ar
  24   16   29 1
  25   17   18 ar
  26   17   30 1
  27   18   19 ar
  28   18   23 1
  29   19   20 ar
  30   19   31 1
  31   20   32 1
  32   21   22 1
  33   21   33 1
  34   21   34 1
  35   22   35 1
  36   22   36 1
  37   22   37 1
  38   23   24 2
  39   23   25 2

#	End of record

