#	Name: ASD01883880
#	Creating user name:	WinNT
#	Creation time:	15. 06. 2019 19:47

#	Modifying user name:	WinNT
#	Modification time:	15. 06. 2019 19:47

#	Program:	/corina/corina34_cracker 3.40 0067  02.08.2006

@<TRIPOS>MOLECULE
ASD01883880
  54   56    0    0    0
SMALL
NO_CHARGES


@<TRIPOS>ATOM
   1 C1             1.6517     1.2372    -0.9180 C.ar    
   2 C2             2.0371    -0.0605    -1.0901 C.ar    
   3 C3             3.3947    -0.4030    -1.0328 C.ar    
   4 C4             4.3558     0.5969    -0.7971 C.ar    
   5 C5             3.9495     1.9084    -0.6245 C.ar    
   6 C6             2.6005     2.2291    -0.6847 C.ar    
   7 C7             3.8110    -1.7955    -1.2168 C.2     
   8 O8             4.9874    -2.0887    -1.1665 O.2     
   9 C9             2.7783    -2.8637    -1.4685 C.3     
  10 O10            5.6724     0.2775    -0.7390 O.3     
  11 C11            4.9706     2.9873    -0.3711 C.3     
  12 C12            5.4330     3.5755    -1.7057 C.3     
  13 C13            6.4698     4.6709    -1.4483 C.3     
  14 O14            2.2045     3.5156    -0.5156 O.3     
  15 C15            0.8016     3.7776    -0.5898 C.3     
  16 C16            0.5536     5.2491    -0.3796 C.ar    
  17 C17            0.1204     7.0894     1.0928 C.ar    
  18 C18            0.3487     5.7396     0.8966 C.ar    
  19 C19            0.5369     6.1077    -1.4619 C.ar    
  20 C20            0.3085     7.4623    -1.2677 C.ar    
  21 C21            0.0975     7.9512     0.0137 C.ar    
  22 O22            0.2920     8.3090    -2.3306 O.3     
  23 C23           -0.8074     8.3117    -3.1257 C.ar    
  24 C24           -2.9512     7.5525    -3.5279 C.ar    
  25 N25           -1.8587     7.5843    -2.7895 N.ar    
  26 C26           -0.8174     9.0833    -4.2807 C.ar    
  27 C27           -1.9562     9.0755    -5.0885 C.ar    
  28 C28           -3.0422     8.2849    -4.6938 C.ar    
  29 C29           -2.0139     9.8820    -6.3289 C.2     
  30 O30           -1.0626    10.5623    -6.6556 O.2     
  31 O31           -3.1215     9.8610    -7.0947 O.3     
  32 H32            0.6046     1.4972    -0.9675 H       
  33 H33            1.2951    -0.8243    -1.2704 H       
  34 H34            2.2290    -2.6303    -2.3806 H       
  35 H35            3.2731    -3.8286    -1.5791 H       
  36 H36            2.0857    -2.9048    -0.6278 H       
  37 H37            6.1257     0.3211    -1.5921 H       
  38 H38            4.5247     3.7739     0.2376 H       
  39 H39            5.8258     2.5620     0.1543 H       
  40 H40            5.8790     2.7890    -2.3144 H       
  41 H41            4.5779     4.0008    -2.2310 H       
  42 H42            6.0239     5.4575    -0.8396 H       
  43 H43            7.3249     4.2456    -0.9230 H       
  44 H44            6.7992     5.0900    -2.3991 H       
  45 H45            0.4283     3.4827    -1.5705 H       
  46 H46            0.2843     3.2081     0.1823 H       
  47 H47           -0.0401     7.4699     2.0907 H       
  48 H48            0.3666     5.0675     1.7417 H       
  49 H49            0.7017     5.7248    -2.4582 H       
  50 H50           -0.0812     9.0051     0.1675 H       
  51 H51           -3.7869     6.9438    -3.2155 H       
  52 H52            0.0417     9.6800    -4.5494 H       
  53 H53           -3.9409     8.2521    -5.2917 H       
  54 H54           -3.1122    10.4039    -7.8949 H       
@<TRIPOS>BOND
   1    1    2 ar
   2    1    6 ar
   3    1   32 1
   4    2    3 ar
   5    2   33 1
   6    3    4 ar
   7    3    7 1
   8    4    5 ar
   9    4   10 1
  10    5    6 ar
  11    5   11 1
  12    6   14 1
  13    7    8 2
  14    7    9 1
  15    9   34 1
  16    9   35 1
  17    9   36 1
  18   10   37 1
  19   11   12 1
  20   11   38 1
  21   11   39 1
  22   12   13 1
  23   12   40 1
  24   12   41 1
  25   13   42 1
  26   13   43 1
  27   13   44 1
  28   14   15 1
  29   15   16 1
  30   15   45 1
  31   15   46 1
  32   16   19 ar
  33   16   18 ar
  34   17   18 ar
  35   17   21 ar
  36   17   47 1
  37   18   48 1
  38   19   20 ar
  39   19   49 1
  40   20   21 ar
  41   20   22 1
  42   21   50 1
  43   22   23 1
  44   23   26 ar
  45   23   25 ar
  46   24   25 ar
  47   24   28 ar
  48   24   51 1
  49   26   27 ar
  50   26   52 1
  51   27   28 ar
  52   27   29 1
  53   28   53 1
  54   29   30 2
  55   29   31 1
  56   31   54 1

#	End of record

