#	Name: ASD01811367
#	Creating user name:	WinNT
#	Creation time:	15. 06. 2019 19:26

#	Modifying user name:	WinNT
#	Modification time:	15. 06. 2019 19:26

#	Program:	/corina/corina34_cracker 3.40 0067  02.08.2006

@<TRIPOS>MOLECULE
ASD01811367
  42   45    0    0    0
SMALL
NO_CHARGES


@<TRIPOS>ATOM
   1 C1            -0.0174     1.4318     0.0099 C.3     
   2 O2             0.0021    -0.0041     0.0020 O.3     
   3 C3             1.2281    -0.3536    -0.6679 C.3     
   4 C4             2.1823     0.7900    -0.4130 C.ar    
   5 C5             3.5530     0.9048    -0.5173 C.ar    
   6 C6             4.1708     2.1045    -0.2108 C.ar    
   7 C7             3.4139     3.1874     0.2000 C.ar    
   8 C8             2.0401     3.0716     0.3047 C.ar    
   9 C9             1.4238     1.8756    -0.0015 C.ar    
  10 N10           -2.8309     2.0464     0.0411 N.3     
  11 C11           -2.2085     1.5188    -1.1799 C.3     
  12 C12           -0.7404     1.9501    -1.2321 C.3     
  13 C13           -0.7156     1.9371     1.2714 C.3     
  14 C14           -2.1845     1.5066     1.2441 C.3     
  15 Br15           6.0497     2.2638    -0.3530 Br      
  16 C16           -4.2751     1.7781     0.0540 C.3     
  17 C17           -4.8352     2.1079     1.4137 C.ar    
  18 C18           -5.3037     3.3813     1.6779 C.ar    
  19 C19           -5.8174     3.6839     2.9250 C.ar    
  20 C20           -5.8629     2.7129     3.9079 C.ar    
  21 C21           -5.3952     1.4393     3.6435 C.ar    
  22 C22           -4.8855     1.1355     2.3949 C.ar    
  23 H23            1.6312    -1.2782    -0.2548 H       
  24 H24            1.0527    -0.4649    -1.7380 H       
  25 H25            4.1434     0.0591    -0.8375 H       
  26 H26            3.8965     4.1234     0.4394 H       
  27 H27            1.4496     3.9170     0.6259 H       
  28 H28           -2.2676     0.4304    -1.1766 H       
  29 H29           -2.7329     1.9084    -2.0525 H       
  30 H30           -0.6816     3.0382    -1.2599 H       
  31 H31           -0.2714     1.5370    -2.1251 H       
  32 H32           -0.2290     1.5146     2.1505 H       
  33 H33           -0.6559     3.0248     1.3094 H       
  34 H34           -2.6913     1.8876     2.1308 H       
  35 H35           -2.2440     0.4183     1.2312 H       
  36 H36           -4.7658     2.3935    -0.7001 H       
  37 H37           -4.4510     0.7251    -0.1657 H       
  38 H38           -5.2682     4.1399     0.9100 H       
  39 H39           -6.1828     4.6789     3.1317 H       
  40 H40           -6.2636     2.9495     4.8825 H       
  41 H41           -5.4304     0.6807     4.4115 H       
  42 H42           -4.5235     0.1394     2.1871 H       
@<TRIPOS>BOND
   1    1    2 1
   2    1    9 1
   3    1   12 1
   4    1   13 1
   5    2    3 1
   6    3    4 1
   7    3   23 1
   8    3   24 1
   9    4    5 ar
  10    4    9 ar
  11    5    6 ar
  12    5   25 1
  13    6    7 ar
  14    6   15 1
  15    7    8 ar
  16    7   26 1
  17    8    9 ar
  18    8   27 1
  19   10   11 1
  20   10   14 1
  21   10   16 1
  22   11   12 1
  23   11   28 1
  24   11   29 1
  25   12   30 1
  26   12   31 1
  27   13   14 1
  28   13   32 1
  29   13   33 1
  30   14   34 1
  31   14   35 1
  32   16   17 1
  33   16   36 1
  34   16   37 1
  35   17   18 ar
  36   17   22 ar
  37   18   19 ar
  38   18   38 1
  39   19   20 ar
  40   19   39 1
  41   20   21 ar
  42   20   40 1
  43   21   22 ar
  44   21   41 1
  45   22   42 1

#	End of record

