#	Name: ASD01100083
#	Creating user name:	WinNT
#	Creation time:	15. 06. 2019 18:58

#	Modifying user name:	WinNT
#	Modification time:	15. 06. 2019 18:58

#	Program:	/corina/corina34_cracker 3.40 0067  02.08.2006

@<TRIPOS>MOLECULE
ASD01100083
  38   40    0    0    0
SMALL
NO_CHARGES


@<TRIPOS>ATOM
   1 C1            -0.0167     1.3781     0.0096 C.ar    
   2 C2             0.0021    -0.0041     0.0020 C.ar    
   3 C3             1.2084    -0.6789    -0.0132 C.ar    
   4 C4             2.3960     0.0285    -0.0212 C.ar    
   5 C5             2.3773     1.4107    -0.0145 C.ar    
   6 C6             1.1710     2.0855     0.0021 C.ar    
   7 C7             3.6720     2.1819    -0.0228 C.3     
   8 S8            -1.5117    -0.9057     0.0123 S.o2    
   9 C9             3.7287     3.0551    -1.2497 C.2     
  10 N10            4.8022     3.8400    -1.4692 N.am    
  11 O11            2.8084     3.0516    -2.0397 O.2     
  12 C12            4.8546     4.6460    -2.6017 C.2     
  13 N13            5.8323     5.4392    -2.9161 N.2     
  14 C14            5.7079     6.1300    -4.0339 C.2     
  15 C15            4.5787     5.9292    -4.7169 C.2     
  16 S16            3.6076     4.7470    -3.8419 S.3     
  17 C17            3.7526     3.0567     1.2299 C.3     
  18 C18            3.7103     2.3522     2.5874 C.3     
  19 C19            5.0207     2.9577     2.0802 C.3     
  20 F20            4.2407     6.5258    -5.8809 F       
  21 O21           -1.1738    -2.1511     0.6075 O.2     
  22 O22           -2.4397    -0.0256     0.6315 O.2     
  23 C23           -1.9181    -1.1280    -1.7416 C.3     
  24 H24           -0.9592     1.9054     0.0170 H       
  25 H25            1.2231    -1.7588    -0.0184 H       
  26 H26            3.3386    -0.4987    -0.0324 H       
  27 H27            1.1563     3.1654     0.0069 H       
  28 H28            4.5100     1.4850    -0.0338 H       
  29 H29            5.5382     3.8428    -0.8374 H       
  30 H30            6.4709     6.8144    -4.3741 H       
  31 H31            3.2720     4.0321     1.1539 H       
  32 H32            3.2023     2.8643     3.4046 H       
  33 H33            3.6251     1.2655     2.5880 H       
  34 H34            5.7975     2.2694     1.7472 H       
  35 H35            5.3747     3.8682     2.5638 H       
  36 H36           -1.1179    -1.6818    -2.2326 H       
  37 H37           -2.8519    -1.6831    -1.8307 H       
  38 H38           -2.0287    -0.1525    -2.2153 H       
@<TRIPOS>BOND
   1    1    2 ar
   2    1    6 ar
   3    1   24 1
   4    2    3 ar
   5    2    8 1
   6    3    4 ar
   7    3   25 1
   8    4    5 ar
   9    4   26 1
  10    5    6 ar
  11    5    7 1
  12    6   27 1
  13    7    9 1
  14    7   17 1
  15    7   28 1
  16    8   21 2
  17    8   22 2
  18    8   23 1
  19    9   10 am
  20    9   11 2
  21   10   12 1
  22   10   29 1
  23   12   13 2
  24   12   16 1
  25   13   14 1
  26   14   15 2
  27   14   30 1
  28   15   16 1
  29   15   20 1
  30   17   18 1
  31   17   19 1
  32   17   31 1
  33   18   19 1
  34   18   32 1
  35   18   33 1
  36   19   34 1
  37   19   35 1
  38   23   36 1
  39   23   37 1
  40   23   38 1

#	End of record

