#	Name: ASD01152249
#	Creating user name:	WinNT
#	Creation time:	15. 06. 2019 19:05

#	Modifying user name:	WinNT
#	Modification time:	15. 06. 2019 19:05

#	Program:	/corina/corina34_cracker 3.40 0067  02.08.2006

@<TRIPOS>MOLECULE
ASD01152249
  42   44    0    0    0
SMALL
NO_CHARGES


@<TRIPOS>ATOM
   1 N1            -0.0169     1.3957     0.0097 N.2     
   2 N2             0.0021    -0.0041     0.0020 N.am    
   3 C3             1.1646    -0.6796    -0.0127 C.2     
   4 N4             2.3448    -0.0325    -0.0205 N.am    
   5 C5             2.3760     1.3163    -0.0136 C.2     
   6 C6             1.1079     2.0612     0.0025 C.2     
   7 O7             1.1494    -1.8957    -0.0187 O.2     
   8 O8             3.4391     1.9086    -0.0201 O.2     
   9 O9             1.1059     3.4196     0.0094 O.3     
  10 C10           -0.1683     4.0664     0.0246 C.3     
  11 C11           -1.2058    -0.7102     0.0102 C.ar    
  12 C12           -2.1451    -0.4715     1.0057 C.ar    
  13 C13           -3.3360    -1.1701     1.0109 C.ar    
  14 C14           -3.5944    -2.1070     0.0268 C.ar    
  15 C15           -2.6616    -2.3473    -0.9652 C.ar    
  16 C16           -1.4710    -1.6472    -0.9801 C.ar    
  17 C17           -1.8641     0.5484     2.0790 C.3     
  18 O18           -2.9726     0.6110     2.9786 O.3     
  19 C19            3.5966    -0.7935    -0.0361 C.3     
  20 C20            4.0125    -1.0472    -1.4621 C.ar    
  21 C21            4.8252    -0.1404    -2.1166 C.ar    
  22 C22            5.2070    -0.3726    -3.4245 C.ar    
  23 C23            4.7757    -1.5129    -4.0787 C.ar    
  24 C24            3.9624    -2.4200    -3.4232 C.ar    
  25 C25            3.5859    -2.1895    -2.1134 C.ar    
  26 Cl26           5.2543    -1.8049    -5.7217 Cl      
  27 H27           -0.7165     3.7681     0.9183 H       
  28 H28           -0.0272     5.1472     0.0287 H       
  29 H29           -0.7332     3.7771    -0.8616 H       
  30 H30           -4.0666    -0.9850     1.7845 H       
  31 H31           -4.5265    -2.6523     0.0333 H       
  32 H32           -2.8662    -3.0798    -1.7320 H       
  33 H33           -0.7450    -1.8317    -1.7581 H       
  34 H34           -0.9669     0.2611     2.6273 H       
  35 H35           -1.7124     1.5257     1.6208 H       
  36 H36           -2.8607     1.2486     3.6969 H       
  37 H37            4.3742    -0.2243     0.4734 H       
  38 H38            3.4496    -1.7453     0.4744 H       
  39 H39            5.1615     0.7498    -1.6060 H       
  40 H40            5.8416     0.3360    -3.9359 H       
  41 H41            3.6254    -3.3103    -3.9333 H       
  42 H42            2.9546    -2.8998    -1.6001 H       
@<TRIPOS>BOND
   1    1    2 1
   2    1    6 2
   3    2    3 am
   4    2   11 1
   5    3    4 am
   6    3    7 2
   7    4    5 am
   8    4   19 1
   9    5    6 1
  10    5    8 2
  11    6    9 1
  12    9   10 1
  13   10   27 1
  14   10   28 1
  15   10   29 1
  16   11   12 ar
  17   11   16 ar
  18   12   13 ar
  19   12   17 1
  20   13   14 ar
  21   13   30 1
  22   14   15 ar
  23   14   31 1
  24   15   16 ar
  25   15   32 1
  26   16   33 1
  27   17   18 1
  28   17   34 1
  29   17   35 1
  30   18   36 1
  31   19   20 1
  32   19   37 1
  33   19   38 1
  34   20   21 ar
  35   20   25 ar
  36   21   22 ar
  37   21   39 1
  38   22   23 ar
  39   22   40 1
  40   23   24 ar
  41   23   26 1
  42   24   25 ar
  43   24   41 1
  44   25   42 1

#	End of record

