#	Name: ASD00840136
#	Creating user name:	WinNT
#	Creation time:	15. 06. 2019 18:37

#	Modifying user name:	WinNT
#	Modification time:	15. 06. 2019 18:37

#	Program:	/corina/corina34_cracker 3.40 0067  02.08.2006

@<TRIPOS>MOLECULE
ASD00840136
  84   89    0    0    0
SMALL
NO_CHARGES


@<TRIPOS>ATOM
   1 N1             0.6317     0.9416     0.2569 N.am    
   2 C2             0.6289    -0.5253     0.1497 C.3     
   3 C3             1.2450    -0.9161    -1.1979 C.3     
   4 N4             2.5655    -0.2861    -1.3300 N.3     
   5 C5             2.4584     1.1789    -1.3400 C.3     
   6 C6             1.8920     1.6556     0.0017 C.3     
   7 C7            -0.4921     1.6140     0.5751 C.2     
   8 O8            -1.5326     1.0043     0.7790 O.co2   
   9 O9            -0.4715     2.8340     0.6599 O.co2   
  10 N10            4.4818    -0.2115    -5.0858 N.3     
  11 C11            3.1873    -0.9017    -5.0209 C.3     
  12 C12            2.4283    -0.4488    -3.7715 C.3     
  13 C13            3.2626    -0.7712    -2.5286 C.3     
  14 C14            4.6239    -0.0796    -2.6439 C.3     
  15 C15            5.3192    -0.5432    -3.9260 C.3     
  16 C16            5.1785    -0.5165    -6.3426 C.3     
  17 C17            0.3583    -3.2020    -1.7554 C.ar    
  18 C18            1.3933    -2.4141    -1.2676 C.ar    
  19 C19            2.5624    -3.0233    -0.8469 C.ar    
  20 C20            2.6553    -4.4060    -0.9295 C.ar    
  21 C21            1.5870    -5.1263    -1.4250 C.ar    
  22 N22            0.4846    -4.5169    -1.8186 N.ar    
  23 O23           -0.7952    -2.6173    -2.1657 O.3     
  24 C24           -1.8216    -3.4817    -2.6570 C.3     
  25 C25           -3.0364    -2.6479    -3.0693 C.3     
  26 N26            2.9619     0.1076     2.5170 N.am    
  27 C27            2.8363    -0.5007     1.3255 C.2     
  28 C28            1.4578    -1.1254     1.2871 C.3     
  29 C29            0.8550    -0.7690     2.6266 C.ar    
  30 C30           -0.3658    -1.0383     3.2045 C.ar    
  31 C31           -0.6457    -0.5705     4.4779 C.ar    
  32 C32            0.3067     0.1676     5.1650 C.ar    
  33 C33            1.5307     0.4378     4.5848 C.ar    
  34 C34            1.8169    -0.0311     3.3042 C.ar    
  35 O35            3.6705    -0.5416     0.4460 O.2     
  36 S36            4.3208     0.9220     2.9991 S.o2    
  37 O37            4.9196     1.4379     1.8182 O.2     
  38 O38            3.9312     1.7398     4.0940 O.2     
  39 C39            5.4432    -0.2727     3.6451 C.ar    
  40 C40            5.1157    -0.9857     4.7895 C.ar    
  41 C41            6.0015    -1.9255     5.2956 C.ar    
  42 C42            7.2073    -2.1495     4.6593 C.ar    
  43 C43            7.5315    -1.4376     3.5195 C.ar    
  44 C44            6.6474    -0.5044     3.0095 C.ar    
  45 O45            3.9293    -0.7632     5.4138 O.3     
  46 C46            3.6074    -1.6125     6.5171 C.3     
  47 F47            0.0357     0.6248     6.4070 F       
  48 F48           -1.8421    -0.8319     5.0484 F       
  49 H49           -0.3952    -0.8945     0.2049 H       
  50 H50            0.5974    -0.5763    -2.0061 H       
  51 H51            3.4456     1.6148    -1.4935 H       
  52 H52            1.7939     1.4896    -2.1463 H       
  53 H53            1.7030     2.7282    -0.0409 H       
  54 H54            2.6039     1.4377     0.7978 H       
  55 H55            2.6022    -0.6607    -5.9084 H       
  56 H56            3.3515    -1.9783    -4.9757 H       
  57 H57            2.2516     0.6255    -3.8225 H       
  58 H58            1.4743    -0.9729    -3.7153 H       
  59 H59            3.4057    -1.8493    -2.4555 H       
  60 H60            4.4817     1.0005    -2.6772 H       
  61 H61            5.2385    -0.3400    -1.7821 H       
  62 H62            5.4735    -1.6215    -3.8860 H       
  63 H63            6.2826    -0.0418    -4.0183 H       
  64 H64            4.5671    -0.1926    -7.1848 H       
  65 H65            6.1341     0.0074    -6.3646 H       
  66 H66            5.3513    -1.5905    -6.4109 H       
  67 H67            3.3840    -2.4365    -0.4634 H       
  68 H68            3.5540    -4.9127    -0.6099 H       
  69 H69            1.6543    -6.2021    -1.4916 H       
  70 H70           -1.4496    -4.0333    -3.5204 H       
  71 H71           -2.1110    -4.1833    -1.8748 H       
  72 H72           -2.7470    -1.9463    -3.8516 H       
  73 H73           -3.8193    -3.3072    -3.4441 H       
  74 H74           -3.4084    -2.0963    -2.2059 H       
  75 H75            1.5318    -2.2070     1.1749 H       
  76 H76           -1.1042    -1.6132     2.6653 H       
  77 H77            2.2676     1.0137     5.1249 H       
  78 H78            5.7490    -2.4815     6.1864 H       
  79 H79            7.8974    -2.8811     5.0530 H       
  80 H80            8.4748    -1.6136     3.0240 H       
  81 H81            6.9009     0.0471     2.1162 H       
  82 H82            2.6007    -1.3860     6.8684 H       
  83 H83            3.6558    -2.6542     6.1999 H       
  84 H84            4.3203    -1.4450     7.3245 H       
@<TRIPOS>BOND
   1    1    2 1
   2    1    6 1
   3    1    7 am
   4    2    3 1
   5    2   28 1
   6    2   49 1
   7    3    4 1
   8    3   18 1
   9    3   50 1
  10    4    5 1
  11    4   13 1
  12    5    6 1
  13    5   51 1
  14    5   52 1
  15    6   53 1
  16    6   54 1
  17    7    8 ar
  18    7    9 ar
  19   10   11 1
  20   10   15 1
  21   10   16 1
  22   11   12 1
  23   11   55 1
  24   11   56 1
  25   12   13 1
  26   12   57 1
  27   12   58 1
  28   13   14 1
  29   13   59 1
  30   14   15 1
  31   14   60 1
  32   14   61 1
  33   15   62 1
  34   15   63 1
  35   16   64 1
  36   16   65 1
  37   16   66 1
  38   17   18 ar
  39   17   22 ar
  40   17   23 1
  41   18   19 ar
  42   19   20 ar
  43   19   67 1
  44   20   21 ar
  45   20   68 1
  46   21   22 ar
  47   21   69 1
  48   23   24 1
  49   24   25 1
  50   24   70 1
  51   24   71 1
  52   25   72 1
  53   25   73 1
  54   25   74 1
  55   26   27 am
  56   26   34 1
  57   26   36 am
  58   27   28 1
  59   27   35 2
  60   28   29 1
  61   28   75 1
  62   29   30 ar
  63   29   34 ar
  64   30   31 ar
  65   30   76 1
  66   31   32 ar
  67   31   48 1
  68   32   33 ar
  69   32   47 1
  70   33   34 ar
  71   33   77 1
  72   36   37 2
  73   36   38 2
  74   36   39 1
  75   39   40 ar
  76   39   44 ar
  77   40   41 ar
  78   40   45 1
  79   41   42 ar
  80   41   78 1
  81   42   43 ar
  82   42   79 1
  83   43   44 ar
  84   43   80 1
  85   44   81 1
  86   45   46 1
  87   46   82 1
  88   46   83 1
  89   46   84 1

#	End of record

