#	Name: ASD01882019
#	Creating user name:	WinNT
#	Creation time:	15. 06. 2019 19:43

#	Modifying user name:	WinNT
#	Modification time:	15. 06. 2019 19:43

#	Program:	/corina/corina34_cracker 3.40 0067  02.08.2006

@<TRIPOS>MOLECULE
ASD01882019
  49   53    0    0    0
SMALL
NO_CHARGES


@<TRIPOS>ATOM
   1 C1            -0.0161     1.3337     0.0094 C.2     
   2 N2             0.0021    -0.0041     0.0020 N.am    
   3 C3             1.2613    -0.4841    -0.0126 C.2     
   4 C4             2.1640     0.7337    -0.0147 C.3     
   5 N5             1.2200     1.8645     0.0004 N.am    
   6 O6            -1.0354     1.9955     0.0180 O.2     
   7 O7             1.6013    -1.6477    -0.0215 O.2     
   8 C8            -1.1986    -0.8435     0.0097 C.3     
   9 C9             1.5609     3.2893     0.0041 C.3     
  10 C10            1.6916     3.7708     1.4261 C.ar    
  11 C11            2.9179     3.7119     2.0633 C.ar    
  12 C12            3.0436     4.1523     3.3663 C.ar    
  13 C13            1.9303     4.6571     4.0391 C.ar    
  14 C14            0.6977     4.7135     3.3908 C.ar    
  15 C15            0.5860     4.2753     2.0868 C.ar    
  16 C16            2.2789     6.7390     9.3442 C.2     
  17 N17            1.6845     7.9356     9.1984 N.am    
  18 C18            1.2664     8.0881     7.8003 C.3     
  19 C19            1.6824     6.8210     7.0951 C.ar    
  20 C20            1.5628     6.3859     5.7986 C.ar    
  21 C21            2.0578     5.1311     5.4380 C.ar    
  22 C22            2.6722     4.3236     6.3958 C.ar    
  23 C23            2.7920     4.7601     7.6955 C.ar    
  24 C24            2.2972     6.0160     8.0592 C.ar    
  25 O25            2.7404     6.3152    10.3860 O.2     
  26 C26            1.4864     8.9247    10.2608 C.3     
  27 C27            0.6554     8.5016    11.4738 C.3     
  28 C28            2.1710     8.6652    11.6042 C.3     
  29 Cl29           4.5830     4.0773     4.1653 Cl      
  30 H30            2.7924     0.7467     0.8759 H       
  31 H31            2.7753     0.7564    -0.9169 H       
  32 H32           -1.5068    -1.0461    -1.0159 H       
  33 H33           -0.9813    -1.7838     0.5163 H       
  34 H34           -2.0010    -0.3250     0.5345 H       
  35 H35            2.5060     3.4381    -0.5182 H       
  36 H36            0.7749     3.8522    -0.4994 H       
  37 H37            3.7784     3.3205     1.5411 H       
  38 H38           -0.1674     5.1033     3.9065 H       
  39 H39           -0.3679     4.3225     1.5825 H       
  40 H40            0.1847     8.2103     7.7440 H       
  41 H41            1.7649     8.9474     7.3518 H       
  42 H42            1.0862     7.0125     5.0593 H       
  43 H43            3.0546     3.3530     6.1165 H       
  44 H44            3.2681     4.1325     8.4343 H       
  45 H45            1.4028     9.9598     9.9297 H       
  46 H46            0.0255     9.2585    11.9411 H       
  47 H47            0.2562     7.4874    11.4814 H       
  48 H48            2.7689     7.7586    11.6976 H       
  49 H49            2.5382     9.5298    12.1572 H       
@<TRIPOS>BOND
   1    1    2 am
   2    1    5 am
   3    1    6 2
   4    2    3 am
   5    2    8 1
   6    3    4 1
   7    3    7 2
   8    4    5 1
   9    4   30 1
  10    4   31 1
  11    5    9 1
  12    8   32 1
  13    8   33 1
  14    8   34 1
  15    9   10 1
  16    9   35 1
  17    9   36 1
  18   10   11 ar
  19   10   15 ar
  20   11   12 ar
  21   11   37 1
  22   12   13 ar
  23   12   29 1
  24   13   14 ar
  25   13   21 1
  26   14   15 ar
  27   14   38 1
  28   15   39 1
  29   16   17 am
  30   16   24 1
  31   16   25 2
  32   17   18 1
  33   17   26 1
  34   18   19 1
  35   18   40 1
  36   18   41 1
  37   19   20 ar
  38   19   24 ar
  39   20   21 ar
  40   20   42 1
  41   21   22 ar
  42   22   23 ar
  43   22   43 1
  44   23   24 ar
  45   23   44 1
  46   26   27 1
  47   26   28 1
  48   26   45 1
  49   27   28 1
  50   27   46 1
  51   27   47 1
  52   28   48 1
  53   28   49 1

#	End of record

