#	Name: ASD01915202
#	Creating user name:	WinNT
#	Creation time:	15. 06. 2019 20:05

#	Modifying user name:	WinNT
#	Modification time:	15. 06. 2019 20:05

#	Program:	/corina/corina34_cracker 3.40 0067  02.08.2006

@<TRIPOS>MOLECULE
ASD01915202
  26   27    0    0    0
SMALL
NO_CHARGES


@<TRIPOS>ATOM
   1 C1            -0.0092     1.3486    -0.1782 C.ar    
   2 C2             0.0202    -0.0326     0.0254 C.ar    
   3 C3            -1.1579    -0.7573     0.0411 C.ar    
   4 C4            -2.3706    -0.1196    -0.1444 C.ar    
   5 C5            -2.4121     1.2620    -0.3489 C.ar    
   6 C6            -1.2287     1.9977    -0.3600 C.ar    
   7 F7            -1.1234    -2.0935     0.2380 F       
   8 C8             1.2509     2.1217    -0.1946 C.2     
   9 N9             2.4293     1.4934    -0.0131 N.am    
  10 O10            1.2240     3.3240    -0.3719 O.2     
  11 C11            3.6270     2.2070    -0.1263 C.ar    
  12 C12            3.6995     3.5355     0.2846 C.ar    
  13 C13            4.9080     4.2001     0.1530 C.ar    
  14 C14            5.9935     3.5286    -0.3776 C.ar    
  15 N15            5.8921     2.2699    -0.7580 N.ar    
  16 C16            4.7633     1.5991    -0.6449 C.ar    
  17 C17           -3.6687     1.9213    -0.5414 C.1     
  18 N18           -4.6655     2.4443    -0.6941 N.1     
  19 H19            0.9646    -0.5360     0.1705 H       
  20 H20           -3.2873    -0.6904    -0.1315 H       
  21 H21           -1.2560     3.0658    -0.5177 H       
  22 H22            2.4469     0.5464     0.1960 H       
  23 H23            2.8349     4.0356     0.6955 H       
  24 H24            5.0008     5.2311     0.4610 H       
  25 H25            6.9379     4.0420    -0.4824 H       
  26 H26            4.7188     0.5692    -0.9671 H       
@<TRIPOS>BOND
   1    1    2 ar
   2    1    8 1
   3    1    6 ar
   4    2    3 ar
   5    2   19 1
   6    3    4 ar
   7    3    7 1
   8    4    5 ar
   9    4   20 1
  10    5    6 ar
  11    5   17 1
  12    6   21 1
  13    8    9 am
  14    8   10 2
  15    9   11 1
  16    9   22 1
  17   11   12 ar
  18   11   16 ar
  19   12   13 ar
  20   12   23 1
  21   13   14 ar
  22   13   24 1
  23   14   15 ar
  24   14   25 1
  25   15   16 ar
  26   16   26 1
  27   17   18 3

#	End of record

