#	Name: ASD00843596
#	Creating user name:	WinNT
#	Creation time:	15. 06. 2019 18:47

#	Modifying user name:	WinNT
#	Modification time:	15. 06. 2019 18:47

#	Program:	/corina/corina34_cracker 3.40 0067  02.08.2006

@<TRIPOS>MOLECULE
ASD00843596
  93   98    0    0    0
SMALL
NO_CHARGES


@<TRIPOS>ATOM
   1 F1             5.7353    -2.5358    -1.8806 F       
   2 N2             0.9941     1.0777    -0.2012 N.ar    
   3 C3             1.1475    -0.2017    -0.4989 C.ar    
   4 C4             0.9682    -1.1804     0.4705 C.ar    
   5 C5             0.6260    -0.7999     1.7561 C.ar    
   6 C6             0.4745     0.5530     2.0280 C.ar    
   7 C7             0.6682     1.4712     1.0155 C.ar    
   8 C8             1.1435    -2.6371     0.1264 C.3     
   9 C9             0.7573    -3.5098     1.3016 C.2     
  10 C10            0.3123    -2.9992    -1.1060 C.3     
  11 C11           -1.1266    -2.6176    -0.8713 C.2     
  12 N12           -2.0674    -2.9459    -1.7787 N.am    
  13 O13           -1.4378    -2.0150     0.1341 O.2     
  14 C14           -3.4566    -2.4876    -1.6254 C.3     
  15 C15           -3.8995    -1.8294    -2.9365 C.3     
  16 N16           -3.6719    -2.7607    -4.0495 N.3     
  17 C17           -2.2431    -3.0633    -4.2074 C.3     
  18 C18           -1.7310    -3.7670    -2.9517 C.3     
  19 C19           -4.2403    -2.2369    -5.2987 C.3     
  20 C20           -3.8772    -3.1702    -6.4570 C.3     
  21 C21           -4.5226    -2.6526    -7.7444 C.3     
  22 N22           -5.9803    -2.5978    -7.5749 N.3     
  23 C23           -6.3552    -1.6713    -6.4991 C.3     
  24 C24           -5.7645    -2.1596    -5.1745 C.3     
  25 C25           -6.6436    -2.2374    -8.8351 C.3     
  26 O26           -0.3356    -3.5727     1.8237 O.2     
  27 N27            1.8527    -4.2020     1.6574 N.am    
  28 C28            2.6032    -2.9548    -0.1038 C.ar    
  29 C29            2.9532    -3.8997     0.8527 C.ar    
  30 C30            3.5274    -2.4977    -1.0163 C.ar    
  31 C31            4.8254    -2.9813    -0.9869 C.ar    
  32 C32            5.1871    -3.9246    -0.0370 C.ar    
  33 C33            4.2593    -4.3830     0.8785 C.ar    
  34 F34            6.4523    -4.3974    -0.0065 F       
  35 C35            1.4706    -6.8642     2.2414 C.ar    
  36 C36            0.2024    -7.0816     1.7232 C.ar    
  37 C37            2.4041    -7.8828     2.2304 C.ar    
  38 C38            2.0752    -9.1176     1.7030 C.ar    
  39 C39            0.8116    -9.3369     1.1857 C.ar    
  40 C40           -0.1253    -8.3220     1.1948 C.ar    
  41 H41            0.5571   -10.3024     0.7742 H       
  42 O42           -0.7176    -6.0815     1.7333 O.3     
  43 C43           -2.0029    -6.3768     1.1830 C.3     
  44 C44           -8.1543    -2.4317    -8.6900 C.3     
  45 C45           -8.8451    -2.0563   -10.0025 C.3     
  46 S46            1.8930    -5.2882     2.9067 S.o2    
  47 O47            3.2504    -5.3769     3.3176 O.2     
  48 O48            0.8367    -4.9277     3.7862 O.2     
  49 O49            1.4827    -0.5618    -1.7634 O.3     
  50 C50            1.6054     0.4874    -2.7257 C.3     
  51 C51            2.0872    -0.0947    -4.0561 C.3     
  52 F52            3.2887    -0.7830    -3.8562 F       
  53 F53            1.1226    -0.9759    -4.5562 F       
  54 H54            0.4798    -1.5386     2.5303 H       
  55 H55            0.2075     0.8837     3.0209 H       
  56 H56            0.5519     2.5249     1.2219 H       
  57 H57            0.6944    -2.4603    -1.9730 H       
  58 H58            0.3788    -4.0721    -1.2867 H       
  59 H59           -4.1011    -3.3391    -1.4072 H       
  60 H60           -3.5155    -1.7626    -0.8136 H       
  61 H61           -4.9597    -1.5827    -2.8796 H       
  62 H62           -3.3221    -0.9194    -3.0998 H       
  63 H63           -2.1021    -3.7115    -5.0723 H       
  64 H64           -1.6889    -2.1361    -4.3530 H       
  65 H65           -0.6500    -3.8905    -3.0163 H       
  66 H66           -2.2088    -4.7422    -2.8578 H       
  67 H67           -3.8388    -1.2423    -5.4928 H       
  68 H68           -2.7942    -3.1960    -6.5777 H       
  69 H69           -4.2442    -4.1743    -6.2441 H       
  70 H70           -4.1447    -1.6541    -7.9641 H       
  71 H71           -4.2778    -3.3229    -8.5684 H       
  72 H72           -5.9688    -0.6773    -6.7247 H       
  73 H73           -7.4414    -1.6287    -6.4186 H       
  74 H74           -6.1612    -3.1477    -4.9414 H       
  75 H75           -6.0299    -1.4633    -4.3790 H       
  76 H76           -6.4324    -1.1945    -9.0716 H       
  77 H77           -6.2707    -2.8745    -9.6371 H       
  78 H78            3.2407    -1.7632    -1.7544 H       
  79 H79            4.5476    -5.1175     1.6160 H       
  80 H80            3.3916    -7.7140     2.6338 H       
  81 H81            2.8065    -9.9123     1.6946 H       
  82 H82           -1.1122    -8.4940     0.7913 H       
  83 H83           -2.6396    -5.4948     1.2533 H       
  84 H84           -1.8932    -6.6632     0.1370 H       
  85 H85           -2.4563    -7.1974     1.7389 H       
  86 H86           -8.3654    -3.4746    -8.4536 H       
  87 H87           -8.5271    -1.7946    -7.8880 H       
  88 H88           -9.9214    -2.1948    -9.8991 H       
  89 H89           -8.6340    -1.0135   -10.2390 H       
  90 H90           -8.4722    -2.6934   -10.8045 H       
  91 H91            0.6361     0.9652    -2.8680 H       
  92 H92            2.3251     1.2246    -2.3698 H       
  93 H93            2.2460     0.7135    -4.7701 H       
@<TRIPOS>BOND
   1    1   31 1
   2    2    3 ar
   3    2    7 ar
   4    3    4 ar
   5    3   49 1
   6    4    5 ar
   7    4    8 1
   8    5    6 ar
   9    5   54 1
  10    6    7 ar
  11    6   55 1
  12    7   56 1
  13    8    9 1
  14    8   10 1
  15    8   28 1
  16    9   26 2
  17    9   27 am
  18   10   11 1
  19   10   57 1
  20   10   58 1
  21   11   12 am
  22   11   13 2
  23   12   14 1
  24   12   18 1
  25   14   15 1
  26   14   59 1
  27   14   60 1
  28   15   16 1
  29   15   61 1
  30   15   62 1
  31   16   17 1
  32   16   19 1
  33   17   18 1
  34   17   63 1
  35   17   64 1
  36   18   65 1
  37   18   66 1
  38   19   20 1
  39   19   24 1
  40   19   67 1
  41   20   21 1
  42   20   68 1
  43   20   69 1
  44   21   22 1
  45   21   70 1
  46   21   71 1
  47   22   23 1
  48   22   25 1
  49   23   24 1
  50   23   72 1
  51   23   73 1
  52   24   74 1
  53   24   75 1
  54   25   44 1
  55   25   76 1
  56   25   77 1
  57   27   46 am
  58   27   29 1
  59   28   29 ar
  60   28   30 ar
  61   29   33 ar
  62   30   31 ar
  63   30   78 1
  64   31   32 ar
  65   32   33 ar
  66   32   34 1
  67   33   79 1
  68   35   36 ar
  69   35   37 ar
  70   35   46 1
  71   36   42 1
  72   36   40 ar
  73   37   38 ar
  74   37   80 1
  75   38   39 ar
  76   38   81 1
  77   39   40 ar
  78   39   41 1
  79   40   82 1
  80   42   43 1
  81   43   83 1
  82   43   84 1
  83   43   85 1
  84   44   45 1
  85   44   86 1
  86   44   87 1
  87   45   88 1
  88   45   89 1
  89   45   90 1
  90   46   47 2
  91   46   48 2
  92   49   50 1
  93   50   51 1
  94   50   91 1
  95   50   92 1
  96   51   52 1
  97   51   53 1
  98   51   93 1

#	End of record

