#	Name: ASD03740121
#	Creating user name:	WinNT
#	Creation time:	15. 06. 2019 20:46

#	Modifying user name:	WinNT
#	Modification time:	15. 06. 2019 20:46

#	Program:	/corina/corina34_cracker 3.40 0067  02.08.2006

@<TRIPOS>MOLECULE
ASD03740121
  31   33    0    0    0
SMALL
NO_CHARGES


@<TRIPOS>ATOM
   1 C1            -0.0168     1.3850     0.0097 C.ar    
   2 C2             0.0021    -0.0041     0.0020 C.ar    
   3 C3            -1.1617    -0.7198     0.0093 C.ar    
   4 C4            -2.3846    -0.0542     0.0245 C.ar    
   5 C5            -2.4059     1.3541     0.0323 C.ar    
   6 C6            -1.2005     2.0644     0.0303 C.ar    
   7 N7            -3.6910    -0.4684     0.0352 N.pl3   
   8 N8            -4.5262     0.6534     0.0495 N.2     
   9 C9            -3.8124     1.7428     0.0483 C.2     
  10 C10           -4.1405    -1.8628     0.0317 C.3     
  11 C11           -4.2804    -2.3490     1.4513 C.ar    
  12 C12           -5.4841    -2.2045     2.1156 C.ar    
  13 C13           -5.6131    -2.6503     3.4175 C.ar    
  14 C14           -4.5372    -3.2411     4.0559 C.ar    
  15 C15           -3.3328    -3.3854     3.3905 C.ar    
  16 C16           -3.2068    -2.9444     2.0867 C.ar    
  17 Cl17          -4.6983    -3.8007     5.6913 Cl      
  18 C18            1.2822     2.1490     0.0014 C.3     
  19 F19            2.3528     1.2486    -0.0137 F       
  20 F20            1.3389     2.9600    -1.1372 F       
  21 F21            1.3607     2.9478     1.1472 F       
  22 H22            0.9483    -0.5246    -0.0102 H       
  23 H23           -1.1331    -1.7994     0.0029 H       
  24 H24           -1.2067     3.1444     0.0365 H       
  25 H25           -4.1933     2.7533     0.0575 H       
  26 H26           -5.1041    -1.9326    -0.4729 H       
  27 H27           -3.4101    -2.4787    -0.4930 H       
  28 H28           -6.3238    -1.7430     1.6173 H       
  29 H29           -6.5534    -2.5371     3.9365 H       
  30 H30           -2.4926    -3.8466     3.8883 H       
  31 H31           -2.2666    -3.0569     1.5672 H       
@<TRIPOS>BOND
   1    1    2 ar
   2    1   18 1
   3    1    6 ar
   4    2    3 ar
   5    2   22 1
   6    3    4 ar
   7    3   23 1
   8    4    5 ar
   9    4    7 1
  10    5    6 ar
  11    5    9 1
  12    6   24 1
  13    7    8 1
  14    7   10 1
  15    8    9 2
  16    9   25 1
  17   10   11 1
  18   10   26 1
  19   10   27 1
  20   11   12 ar
  21   11   16 ar
  22   12   13 ar
  23   12   28 1
  24   13   14 ar
  25   13   29 1
  26   14   15 ar
  27   14   17 1
  28   15   16 ar
  29   15   30 1
  30   16   31 1
  31   18   19 1
  32   18   20 1
  33   18   21 1

#	End of record

