#	Name: ASD01940059
#	Creating user name:	WinNT
#	Creation time:	15. 06. 2019 20:11

#	Modifying user name:	WinNT
#	Modification time:	15. 06. 2019 20:11

#	Program:	/corina/corina34_cracker 3.40 0067  02.08.2006

@<TRIPOS>MOLECULE
ASD01940059
  35   36    0    0    0
SMALL
NO_CHARGES


@<TRIPOS>ATOM
   1 C1            -0.0174     1.3869     0.0363 C.ar    
   2 C2            -0.0993     0.1349    -0.5602 C.ar    
   3 C3            -1.2869    -0.5689    -0.5247 C.ar    
   4 C4            -2.3944    -0.0284     0.1040 C.ar    
   5 C5            -2.3161     1.2182     0.6988 C.ar    
   6 C6            -1.1297     1.9244     0.6718 C.ar    
   7 N7             1.1830     2.1016     0.0020 N.pl3   
   8 C8             1.1639     3.4817    -0.0948 C.2     
   9 C9             2.2476     4.3450    -0.0202 C.2     
  10 C10            3.6315     3.8857     0.1814 C.2     
  11 N11            4.1343     3.7512     1.4588 N.pl3   
  12 N12            4.3838     3.6055    -0.8498 N.2     
  13 C13            5.5116     3.2941     1.6595 C.3     
  14 I14           -4.1942    -1.0995     0.1546 I       
  15 C15            6.0257     3.8010     3.0085 C.3     
  16 C16            5.5491     1.7647     1.6414 C.3     
  17 C17            1.9009     5.6903    -0.1551 C.2     
  18 N18            0.6420     5.9568    -0.3286 N.2     
  19 S19           -0.2072     4.4905    -0.3406 S.3     
  20 O20            2.8361     6.6742    -0.1067 O.3     
  21 H21            0.7648    -0.2875    -1.0514 H       
  22 H22           -1.3513    -1.5421    -0.9885 H       
  23 H23           -3.1824     1.6374     1.1888 H       
  24 H24           -1.0692     2.8975     1.1363 H       
  25 H25            2.0296     1.6302     0.0462 H       
  26 H26            3.5759     3.9592     2.2242 H       
  27 H27            5.2958     3.3028    -0.7169 H       
  28 H28            6.1434     3.6825     0.8607 H       
  29 H29            5.3939     3.4125     3.8073 H       
  30 H30            7.0505     3.4609     3.1578 H       
  31 H31            5.9990     4.8906     3.0213 H       
  32 H32            4.9174     1.3763     2.4402 H       
  33 H33            5.1829     1.4036     0.6804 H       
  34 H34            6.5739     1.4246     1.7907 H       
  35 H35            3.2151     6.8993    -0.9674 H       
@<TRIPOS>BOND
   1    1    2 ar
   2    1    7 1
   3    1    6 ar
   4    2    3 ar
   5    2   21 1
   6    3    4 ar
   7    3   22 1
   8    4    5 ar
   9    4   14 1
  10    5    6 ar
  11    5   23 1
  12    6   24 1
  13    7    8 1
  14    7   25 1
  15    8    9 2
  16    8   19 1
  17    9   10 1
  18    9   17 1
  19   10   11 1
  20   10   12 2
  21   11   13 1
  22   11   26 1
  23   12   27 1
  24   13   15 1
  25   13   16 1
  26   13   28 1
  27   15   29 1
  28   15   30 1
  29   15   31 1
  30   16   32 1
  31   16   33 1
  32   16   34 1
  33   17   18 2
  34   17   20 1
  35   18   19 1
  36   20   35 1

#	End of record

