#	Name: ASD03180013
#	Creating user name:	WinNT
#	Creation time:	15. 06. 2019 20:33

#	Modifying user name:	WinNT
#	Modification time:	15. 06. 2019 20:33

#	Program:	/corina/corina34_cracker 3.40 0067  02.08.2006

@<TRIPOS>MOLECULE
ASD03180013
  47   49    0    0    0
SMALL
NO_CHARGES


@<TRIPOS>ATOM
   1 C1             7.4422     3.6364     1.7872 C.ar    
   2 C2             7.2002     4.9757     2.0346 C.ar    
   3 C3             5.9911     5.5388     1.6680 C.ar    
   4 C4             5.0254     4.7631     1.0547 C.ar    
   5 C5             5.2676     3.4246     0.8080 C.ar    
   6 C6             6.4759     2.8615     1.1738 C.ar    
   7 S7             4.0357     2.4360     0.0272 S.o2    
   8 O8             2.7827     3.0143     0.3663 O.2     
   9 N9             4.2139     2.6315    -1.6076 N.am    
  10 O10            4.3690     1.0835     0.3082 O.2     
  11 C11            3.4085     3.6278    -2.3182 C.3     
  12 C12            5.1768     1.8081    -2.3431 C.3     
  13 C13            4.4591     0.6496    -2.9863 C.ar    
  14 C14            4.1907     4.9099    -2.4427 C.2     
  15 N15            3.6458     5.9741    -3.0648 N.am    
  16 C16            4.4063     7.1309    -3.2680 C.ar    
  17 O17            5.3107     4.9841    -1.9830 O.2     
  18 C18            4.0091     0.7527    -4.2893 C.ar    
  19 C19            3.3507    -0.3100    -4.8793 C.ar    
  20 C20            3.1428    -1.4760    -4.1665 C.ar    
  21 C21            3.5937    -1.5794    -2.8638 C.ar    
  22 C22            4.2559    -0.5183    -2.2753 C.ar    
  23 C23            4.2306     7.8857    -4.4207 C.ar    
  24 C24            4.9825     9.0270    -4.6189 C.ar    
  25 C25            5.9103     9.4190    -3.6715 C.ar    
  26 C26            6.0885     8.6694    -2.5221 C.ar    
  27 C27            5.3340     7.5295    -2.3151 C.ar    
  28 Br28           8.5215     6.0362     2.8743 Br      
  29 Cl29           7.2549     9.1648    -1.3355 Cl      
  30 H30            8.3878     3.1974     2.0693 H       
  31 H31            5.8015     6.5843     1.8613 H       
  32 H32            4.0814     5.2027     0.7684 H       
  33 H33            6.6648     1.8159     0.9806 H       
  34 H34            3.1626     3.2543    -3.3122 H       
  35 H35            2.4895     3.8153    -1.7629 H       
  36 H36            5.6567     2.4114    -3.1138 H       
  37 H37            5.9325     1.4303    -1.6544 H       
  38 H38            2.7263     5.9380    -3.3717 H       
  39 H39            4.1715     1.6637    -4.8462 H       
  40 H40            2.9985    -0.2291    -5.8970 H       
  41 H41            2.6278    -2.3060    -4.6272 H       
  42 H42            3.4309    -2.4903    -2.3068 H       
  43 H43            4.6114    -0.6005    -1.2588 H       
  44 H44            3.5067     7.5800    -5.1616 H       
  45 H45            4.8459     9.6139    -5.5152 H       
  46 H46            6.4973    10.3117    -3.8291 H       
  47 H47            5.4697     6.9472    -1.4158 H       
@<TRIPOS>BOND
   1    1    2 ar
   2    1    6 ar
   3    1   30 1
   4    2    3 ar
   5    2   28 1
   6    3    4 ar
   7    3   31 1
   8    4    5 ar
   9    4   32 1
  10    5    6 ar
  11    5    7 1
  12    6   33 1
  13    7    8 2
  14    7    9 am
  15    7   10 2
  16    9   11 1
  17    9   12 1
  18   11   14 1
  19   11   34 1
  20   11   35 1
  21   12   13 1
  22   12   36 1
  23   12   37 1
  24   13   18 ar
  25   13   22 ar
  26   14   15 am
  27   14   17 2
  28   15   16 1
  29   15   38 1
  30   16   23 ar
  31   16   27 ar
  32   18   19 ar
  33   18   39 1
  34   19   20 ar
  35   19   40 1
  36   20   21 ar
  37   20   41 1
  38   21   22 ar
  39   21   42 1
  40   22   43 1
  41   23   24 ar
  42   23   44 1
  43   24   25 ar
  44   24   45 1
  45   25   26 ar
  46   25   46 1
  47   26   27 ar
  48   26   29 1
  49   27   47 1

#	End of record

