#	Name: ASD02810007
#	Creating user name:	WinNT
#	Creation time:	15. 06. 2019 20:26

#	Modifying user name:	WinNT
#	Modification time:	15. 06. 2019 20:26

#	Program:	/corina/corina34_cracker 3.40 0067  02.08.2006

@<TRIPOS>MOLECULE
ASD02810007
 132  132    0    0    0
SMALL
NO_CHARGES


@<TRIPOS>ATOM
   1 C1            -1.8792    -1.2357    -3.8064 C.3     
   2 C2             0.5621   -23.8696    13.8817 C.3     
   3 C3            -0.2053   -21.9442    16.3695 C.3     
   4 C4             0.2281   -21.5185    14.9652 C.3     
   5 C5            -0.1931   -22.5685    13.9696 C.2     
   6 N6            -0.4058   -20.2380    14.6242 N.3     
   7 O7            -1.1359   -22.3672    13.2423 O.2     
   8 C8             0.3220   -20.9570    17.3787 C.ar    
   9 C9            -0.4373   -19.8558    17.7288 C.ar    
  10 C10            0.0438   -18.9494    18.6537 C.ar    
  11 C11            1.2899   -19.1449    19.2314 C.ar    
  12 C12            2.0498   -20.2506    18.8785 C.ar    
  13 C13            1.5618   -21.1571    17.9572 C.ar    
  14 O14            1.7655   -18.2545    20.1412 O.3     
  15 C15            0.2251   -17.1202    14.3893 C.3     
  16 C16           -0.2026   -18.1862    13.3785 C.3     
  17 C17            0.2243   -17.7670    11.9953 C.2     
  18 N18            0.4314   -19.4667    13.7195 N.3     
  19 O19            1.2172   -18.2509    11.4944 O.2     
  20 C20           -0.1472   -17.5775    15.8010 C.3     
  21 C21            1.7386   -16.9134    14.3027 C.3     
  22 C22           -0.8019   -17.5340     8.9856 C.3     
  23 C23           -0.1457   -16.5261     9.9312 C.3     
  24 C24           -0.6345   -15.1385     9.6043 C.2     
  25 N25           -0.4973   -16.8543    11.3151 N.am    
  26 O26           -1.5055   -14.6284    10.2766 O.2     
  27 C27           -0.2301   -18.9283     9.2497 C.3     
  28 C28           -2.3130   -17.5487     9.2248 C.3     
  29 C29            0.5236   -12.1233     8.8908 C.3     
  30 C30           -0.5128   -13.0826     8.3023 C.3     
  31 C31           -0.6134   -12.8625     6.8148 C.2     
  32 N32           -0.1037   -14.4646     8.5649 N.am    
  33 O33           -0.3676   -13.7706     6.0494 O.2     
  34 C34            0.5702   -12.2908    10.3877 C.2     
  35 N35            1.4367   -11.5638    11.1205 N.am    
  36 O36           -0.1722   -13.0797    10.9330 O.2     
  37 C37           -2.4534   -11.8893     4.3996 C.3     
  38 C38           -1.0744   -11.4426     4.8891 C.3     
  39 C39           -0.8826    -9.9793     4.5837 C.2     
  40 N40           -0.9766   -11.6565     6.3351 N.am    
  41 O41           -0.6838    -9.1927     5.4851 O.2     
  42 O42           -3.4576   -11.0508     4.9746 O.3     
  43 C43            0.7494    -7.8157     2.9040 C.3     
  44 C44           -0.7456    -8.1225     3.0119 C.3     
  45 C45           -1.4223    -7.7887     1.7074 C.2     
  46 N46           -0.9321    -9.5449     3.3088 N.am    
  47 O47           -2.0031    -8.6538     1.0868 O.2     
  48 C48            1.4147    -8.0358     4.2641 C.3     
  49 C49            2.8872    -7.7336     4.1579 C.2     
  50 O50            3.3565    -7.3786     3.1026 O.2     
  51 O51            3.6775    -7.8589     5.2356 O.3     
  52 C52           -3.5185    -5.9044     0.2168 C.3     
  53 C53           -2.0399    -6.2044    -0.0378 C.3     
  54 C54           -1.3806    -4.9959    -0.6509 C.2     
  55 N55           -1.3821    -6.5288     1.2304 N.am    
  56 O56           -0.4525    -4.4586    -0.0844 O.2     
  57 C57           -4.2157    -7.1690     0.7225 C.3     
  58 C58           -5.6625    -6.8393     1.0952 C.3     
  59 C59           -4.2019    -8.2332    -0.3767 C.3     
  60 C60            0.0419    -3.7782    -3.2316 C.3     
  61 C61           -1.1812    -3.3375    -2.4249 C.3     
  62 C62           -2.1586    -2.6397    -3.3353 C.2     
  63 N63           -1.8222    -4.5123    -1.8288 N.am    
  64 O64           -3.1656    -3.2056    -3.6873 O.2     
  65 O65           -0.3800    -4.5801    -4.3366 O.3     
  66 H66           -0.9425    -1.2190    -4.3634 H       
  67 H67           -2.6915    -0.9005    -4.4513 H       
  68 H68           -1.8017    -0.5722    -2.9451 H       
  69 H69            1.3733   -23.8688    14.6098 H       
  70 H70           -0.1147   -24.6975    14.0927 H       
  71 H71            0.9740   -23.9835    12.8790 H       
  72 H72           -1.2937   -21.9706    16.4214 H       
  73 H73            0.1931   -22.9350    16.5880 H       
  74 H74            1.3120   -21.4060    14.9380 H       
  75 H75           -1.3244   -20.3822    14.2324 H       
  76 H76           -1.4071   -19.7039    17.2786 H       
  77 H77           -0.5495   -18.0892    18.9266 H       
  78 H78            3.0201   -20.4050    19.3268 H       
  79 H79            2.1510   -22.0203    17.6854 H       
  80 H80            1.5285   -18.4617    21.0555 H       
  81 H81           -0.2832   -16.1824    14.1652 H       
  82 H82           -1.2864   -18.2987    13.4057 H       
  83 H83            1.3499   -19.3225    14.1113 H       
  84 H84            0.1785   -16.8288    16.5232 H       
  85 H85           -1.2279   -17.7023    15.8694 H       
  86 H86            0.3426   -18.5272    16.0163 H       
  87 H87            2.2469   -17.8512    14.5267 H       
  88 H88            2.0038   -16.5876    13.2969 H       
  89 H89            2.0433   -16.1539    15.0228 H       
  90 H90           -0.6003   -17.2482     7.9532 H       
  91 H91            0.9370   -16.5674     9.8119 H       
  92 H92           -1.2494   -16.4147    11.7417 H       
  93 H93           -0.5880   -19.6185     8.4858 H       
  94 H94            0.8587   -18.8861     9.2200 H       
  95 H95           -0.5537   -19.2736    10.2317 H       
  96 H96           -2.5147   -17.8345    10.2571 H       
  97 H97           -2.7204   -16.5554     9.0366 H       
  98 H98           -2.7806   -18.2668     8.5510 H       
  99 H99            1.5043   -12.3450     8.4697 H       
 100 H100           0.2478   -11.0970     8.6484 H       
 101 H101          -1.4828   -12.8969     8.7634 H       
 102 H102           0.5492   -14.8945     7.9906 H       
 103 H103           2.0305   -10.9327    10.6844 H       
 104 H104           1.4667   -11.6716    12.0841 H       
 105 H105          -2.4954   -11.8136     3.3130 H       
 106 H106          -2.6280   -12.9227     4.6988 H       
 107 H107          -0.3034   -12.0235     4.3829 H       
 108 H108          -1.1732   -10.9302     6.9472 H       
 109 H109          -4.3591   -11.2768     4.7074 H       
 110 H110           1.2037    -8.4769     2.1661 H       
 111 H111           0.8863    -6.7790     2.5962 H       
 112 H112          -1.1826    -7.5241     3.8114 H       
 113 H113          -1.0910   -10.1741     2.5878 H       
 114 H114           0.9604    -7.3747     5.0021 H       
 115 H115           1.2778    -9.0725     4.5720 H       
 116 H116           4.6153    -7.6540     5.1185 H       
 117 H117          -3.6059    -5.1172     0.9656 H       
 118 H118          -3.9878    -5.5771    -0.7109 H       
 119 H119          -1.9529    -7.0507    -0.7192 H       
 120 H120          -0.9176    -5.8369     1.7267 H       
 121 H121          -3.6914    -7.5466     1.6004 H       
 122 H122          -6.1868    -6.4617     0.2173 H       
 123 H123          -6.1592    -7.7402     1.4554 H       
 124 H124          -5.6723    -6.0812     1.8782 H       
 125 H125          -3.1712    -8.4680    -0.6422 H       
 126 H126          -4.6986    -9.1341    -0.0164 H       
 127 H127          -4.7262    -7.8556    -1.2545 H       
 128 H128           0.5694    -2.8989    -3.6013 H       
 129 H129           0.7075    -4.3598    -2.5938 H       
 130 H130          -0.8687    -2.6542    -1.6353 H       
 131 H131          -2.5644    -4.9420    -2.2819 H       
 132 H132           0.3452    -4.8954    -4.8932 H       
@<TRIPOS>BOND
   1    1   62 1
   2    1   66 1
   3    1   67 1
   4    1   68 1
   5    2    5 1
   6    2   69 1
   7    2   70 1
   8    2   71 1
   9    3    8 1
  10    3    4 1
  11    3   72 1
  12    3   73 1
  13    4    5 1
  14    4    6 1
  15    4   74 1
  16    5    7 2
  17    6   18 1
  18    6   75 1
  19    8    9 ar
  20    8   13 ar
  21    9   10 ar
  22    9   76 1
  23   10   11 ar
  24   10   77 1
  25   11   12 ar
  26   11   14 1
  27   12   13 ar
  28   12   78 1
  29   13   79 1
  30   14   80 1
  31   15   20 1
  32   15   21 1
  33   15   16 1
  34   15   81 1
  35   16   18 1
  36   16   17 1
  37   16   82 1
  38   17   19 2
  39   17   25 am
  40   18   83 1
  41   20   84 1
  42   20   85 1
  43   20   86 1
  44   21   87 1
  45   21   88 1
  46   21   89 1
  47   22   27 1
  48   22   28 1
  49   22   23 1
  50   22   90 1
  51   23   25 1
  52   23   24 1
  53   23   91 1
  54   24   26 2
  55   24   32 am
  56   25   92 1
  57   27   93 1
  58   27   94 1
  59   27   95 1
  60   28   96 1
  61   28   97 1
  62   28   98 1
  63   29   34 1
  64   29   30 1
  65   29   99 1
  66   29  100 1
  67   30   32 1
  68   30   31 1
  69   30  101 1
  70   31   33 2
  71   31   40 am
  72   32  102 1
  73   34   35 am
  74   34   36 2
  75   35  103 1
  76   35  104 1
  77   37   42 1
  78   37   38 1
  79   37  105 1
  80   37  106 1
  81   38   40 1
  82   38   39 1
  83   38  107 1
  84   39   41 2
  85   39   46 am
  86   40  108 1
  87   42  109 1
  88   43   48 1
  89   43   44 1
  90   43  110 1
  91   43  111 1
  92   44   46 1
  93   44   45 1
  94   44  112 1
  95   45   47 2
  96   45   55 am
  97   46  113 1
  98   48   49 1
  99   48  114 1
 100   48  115 1
 101   49   50 2
 102   49   51 1
 103   51  116 1
 104   52   57 1
 105   52   53 1
 106   52  117 1
 107   52  118 1
 108   53   55 1
 109   53   54 1
 110   53  119 1
 111   54   56 2
 112   54   63 am
 113   55  120 1
 114   57   58 1
 115   57   59 1
 116   57  121 1
 117   58  122 1
 118   58  123 1
 119   58  124 1
 120   59  125 1
 121   59  126 1
 122   59  127 1
 123   60   65 1
 124   60   61 1
 125   60  128 1
 126   60  129 1
 127   61   63 1
 128   61   62 1
 129   61  130 1
 130   62   64 2
 131   63  131 1
 132   65  132 1

#	End of record

