#	Name: ASD07301036
#	Creating user name:	WinNT
#	Creation time:	15. 06. 2019 21:10

#	Modifying user name:	WinNT
#	Modification time:	15. 06. 2019 21:10

#	Program:	/corina/corina34_cracker 3.40 0067  02.08.2006

@<TRIPOS>MOLECULE
ASD07301036
  35   36    0    0    0
SMALL
NO_CHARGES


@<TRIPOS>ATOM
   1 C1            -0.0169     1.4660     0.0587 C.2     
   2 C2             0.0021    -0.0040     0.0010 C.2     
   3 C3             1.2715    -0.6339    -0.0636 C.2     
   4 C4             2.3707     0.1577    -0.0675 C.2     
   5 N5             2.2551     1.5069    -0.0114 N.pl3   
   6 N6             1.1282     2.1149     0.0478 N.2     
   7 O7            -1.0315    -0.6546     0.0087 O.2     
   8 C8             3.4246     2.2746    -0.0184 C.ar    
   9 C9             4.6645     1.6544     0.0712 C.ar    
  10 C10            5.8174     2.4140     0.0636 C.ar    
  11 C11            5.7384     3.7935    -0.0333 C.ar    
  12 C12            4.5033     4.4140    -0.1228 C.ar    
  13 C13            3.3480     3.6580    -0.1209 C.ar    
  14 F14            6.8678     4.5349    -0.0401 F       
  15 C15           -1.2981     2.2006     0.1216 C.2     
  16 C16           -1.3009     3.6121     0.1766 C.2     
  17 C17           -2.4728     4.2841     0.2342 C.2     
  18 O18           -2.3516     1.5886     0.1260 O.2     
  19 N19           -2.4755     5.6483     0.2874 N.pl3   
  20 C20           -1.2087     6.3841     0.2821 C.3     
  21 C21           -3.7453     6.3764     0.3497 C.3     
  22 H22            1.3587    -1.7094    -0.1078 H       
  23 H23            3.3514    -0.2919    -0.1155 H       
  24 H24            4.7265     0.5788     0.1472 H       
  25 H25            6.7814     1.9323     0.1336 H       
  26 H26            4.4440     5.4898    -0.1979 H       
  27 H27            2.3853     4.1419    -0.1948 H       
  28 H28           -0.3670     4.1546     0.1728 H       
  29 H29           -3.4067     3.7416     0.2380 H       
  30 H30           -0.9220     6.6066    -0.7457 H       
  31 H31           -1.3272     7.3154     0.8360 H       
  32 H32           -0.4344     5.7778     0.7522 H       
  33 H33           -4.5720     5.6661     0.3442 H       
  34 H34           -3.7805     6.9677     1.2647 H       
  35 H35           -3.8281     7.0370    -0.5133 H       
@<TRIPOS>BOND
   1    1    2 1
   2    1    6 2
   3    1   15 1
   4    2    3 1
   5    2    7 2
   6    3    4 2
   7    3   22 1
   8    4    5 1
   9    4   23 1
  10    5    6 1
  11    5    8 1
  12    8    9 ar
  13    8   13 ar
  14    9   10 ar
  15    9   24 1
  16   10   11 ar
  17   10   25 1
  18   11   12 ar
  19   11   14 1
  20   12   13 ar
  21   12   26 1
  22   13   27 1
  23   15   16 1
  24   15   18 2
  25   16   17 2
  26   16   28 1
  27   17   19 1
  28   17   29 1
  29   19   20 1
  30   19   21 1
  31   20   30 1
  32   20   31 1
  33   20   32 1
  34   21   33 1
  35   21   34 1
  36   21   35 1

#	End of record

