#	Name: ASD03740194
#	Creating user name:	WinNT
#	Creation time:	15. 06. 2019 20:46

#	Modifying user name:	WinNT
#	Modification time:	15. 06. 2019 20:46

#	Program:	/corina/corina34_cracker 3.40 0067  02.08.2006

@<TRIPOS>MOLECULE
ASD03740194
  53   56    0    0    0
SMALL
NO_CHARGES


@<TRIPOS>ATOM
   1 C1            -0.0168     1.3849     0.0097 C.ar    
   2 C2             0.0021    -0.0041     0.0020 C.ar    
   3 C3             1.1850    -0.6877    -0.0125 C.ar    
   4 C4             2.3894     0.0113    -0.0203 C.ar    
   5 C5             2.3718     1.4195    -0.0131 C.ar    
   6 C6             1.1486     2.0963     0.0023 C.ar    
   7 N7             3.7063    -0.3680    -0.0346 N.pl3   
   8 N8             4.5133     0.7743    -0.0364 N.2     
   9 C9             3.7704     1.8474    -0.0241 C.2     
  10 O10            4.2163     3.1315    -0.0222 O.3     
  11 C11            4.1915    -1.7503    -0.0454 C.3     
  12 C12            4.3443    -2.2179    -1.4698 C.ar    
  13 C13            5.5439    -2.0358    -2.1322 C.ar    
  14 C14            5.6841    -2.4647    -3.4388 C.ar    
  15 C15            4.6248    -3.0762    -4.0829 C.ar    
  16 C16            3.4254    -3.2591    -3.4203 C.ar    
  17 C17            3.2867    -2.8341    -2.1122 C.ar    
  18 C18            5.6318     3.3268    -0.0344 C.3     
  19 C19            5.9400     4.8254    -0.0302 C.3     
  20 C20            7.4556     5.0345    -0.0433 C.3     
  21 N21            7.7515     6.4734    -0.0393 N.3     
  22 C22            9.1820     6.7158     0.1866 C.3     
  23 C23            9.4769     8.2104     0.0400 C.3     
  24 C24            8.6407     8.9927     1.0565 C.3     
  25 C25            7.1579     8.6850     0.8306 C.3     
  26 C26            6.9303     7.1767     0.9543 C.3     
  27 H27           -0.9621     1.9071     0.0170 H       
  28 H28           -0.9296    -0.5502     0.0080 H       
  29 H29            1.1859    -1.7677    -0.0176 H       
  30 H30            1.1256     3.1760     0.0077 H       
  31 H31            5.1565    -1.8005     0.4590 H       
  32 H32            3.4771    -2.3902     0.4724 H       
  33 H33            6.3715    -1.5581    -1.6289 H       
  34 H34            6.6211    -2.3218    -3.9565 H       
  35 H35            4.7340    -3.4106    -5.1040 H       
  36 H36            2.5977    -3.7365    -3.9236 H       
  37 H37            2.3497    -2.9770    -1.5945 H       
  38 H38            6.0702     2.8632     0.8494 H       
  39 H39            6.0537     2.8716    -0.9305 H       
  40 H40            5.5016     5.2889    -0.9140 H       
  41 H41            5.5182     5.2806     0.8659 H       
  42 H42            7.8940     4.5709     0.8405 H       
  43 H43            7.8774     4.5793    -0.9394 H       
  44 H44            9.4516     6.3893     1.1910 H       
  45 H45            9.7652     6.1571    -0.5455 H       
  46 H46           10.5359     8.3920     0.2231 H       
  47 H47            9.2205     8.5346    -0.9686 H       
  48 H48            8.9245     8.6966     2.0664 H       
  49 H49            8.8150    10.0608     0.9265 H       
  50 H50            6.5601     9.2058     1.5786 H       
  51 H51            6.8650     9.0167    -0.1655 H       
  52 H52            5.8779     6.9527     0.7799 H       
  53 H53            7.2103     6.8480     1.9552 H       
@<TRIPOS>BOND
   1    1    2 ar
   2    1    6 ar
   3    1   27 1
   4    2    3 ar
   5    2   28 1
   6    3    4 ar
   7    3   29 1
   8    4    5 ar
   9    4    7 1
  10    5    6 ar
  11    5    9 1
  12    6   30 1
  13    7    8 1
  14    7   11 1
  15    8    9 2
  16    9   10 1
  17   10   18 1
  18   11   12 1
  19   11   31 1
  20   11   32 1
  21   12   13 ar
  22   12   17 ar
  23   13   14 ar
  24   13   33 1
  25   14   15 ar
  26   14   34 1
  27   15   16 ar
  28   15   35 1
  29   16   17 ar
  30   16   36 1
  31   17   37 1
  32   18   19 1
  33   18   38 1
  34   18   39 1
  35   19   20 1
  36   19   40 1
  37   19   41 1
  38   20   21 1
  39   20   42 1
  40   20   43 1
  41   21   22 1
  42   21   26 1
  43   22   23 1
  44   22   44 1
  45   22   45 1
  46   23   24 1
  47   23   46 1
  48   23   47 1
  49   24   25 1
  50   24   48 1
  51   24   49 1
  52   25   26 1
  53   25   50 1
  54   25   51 1
  55   26   52 1
  56   26   53 1

#	End of record

