#	Name: ASD01820087
#	Creating user name:	WinNT
#	Creation time:	15. 06. 2019 19:36

#	Modifying user name:	WinNT
#	Modification time:	15. 06. 2019 19:36

#	Program:	/corina/corina34_cracker 3.40 0067  02.08.2006

@<TRIPOS>MOLECULE
ASD01820087
  36   38    0    0    0
SMALL
NO_CHARGES


@<TRIPOS>ATOM
   1 C1             0.2704     1.6363     0.3747 C.ar    
   2 C2             0.3136     0.2613     0.2017 C.ar    
   3 C3             1.5291    -0.3905     0.2889 C.ar    
   4 N4             2.6380     0.2799     0.5336 N.ar    
   5 C5             2.6346     1.5876     0.7034 C.ar    
   6 C6             1.4568     2.3069     0.6299 C.ar    
   7 C7            -1.0342     2.3849     0.2812 C.3     
   8 C8            -1.5525     2.6674     1.6925 C.3     
   9 C9            -2.6719     3.6842     1.5853 C.2     
  10 C10           -2.3239     5.0215     0.9667 C.3     
  11 C11           -1.4176     4.7843    -0.2105 C.2     
  12 N12           -0.8235     3.6194    -0.4579 N.am    
  13 O13           -1.2179     5.7041    -0.9754 O.2     
  14 C14           -1.6343     5.8610     1.9600 C.1     
  15 N15           -1.1022     6.5088     2.7265 N.1     
  16 N16           -3.8655     3.4220     2.0015 N.2     
  17 C17           -4.8224     4.4066     2.0071 C.ar    
  18 C18           -5.5379     6.6085     2.6445 C.ar    
  19 C19           -4.5721     5.6227     2.6422 C.ar    
  20 C20           -6.0480     4.1968     1.3720 C.ar    
  21 C21           -7.0058     5.1915     1.3816 C.ar    
  22 C22           -6.7524     6.3933     2.0182 C.ar    
  23 Cl23          -6.3668     2.6896     0.5719 Cl      
  24 H24           -0.5913    -0.2934     0.0018 H       
  25 H25            1.5713    -1.4614     0.1554 H       
  26 H26            3.5629     2.1024     0.9025 H       
  27 H27            1.4605     3.3778     0.7695 H       
  28 H28           -1.7612     1.7708    -0.2503 H       
  29 H29           -1.9319     1.7472     2.1368 H       
  30 H30           -0.7472     3.0694     2.3072 H       
  31 H31           -3.2348     5.5185     0.6330 H       
  32 H32           -0.1946     3.5914    -1.1958 H       
  33 H33           -5.3449     7.5506     3.1361 H       
  34 H34           -3.6245     5.7925     3.1317 H       
  35 H35           -7.9544     5.0310     0.8910 H       
  36 H36           -7.5048     7.1679     2.0237 H       
@<TRIPOS>BOND
   1    1    2 ar
   2    1    6 ar
   3    1    7 1
   4    2    3 ar
   5    2   24 1
   6    3    4 ar
   7    3   25 1
   8    4    5 ar
   9    5    6 ar
  10    5   26 1
  11    6   27 1
  12    7    8 1
  13    7   12 1
  14    7   28 1
  15    8    9 1
  16    8   29 1
  17    8   30 1
  18    9   10 1
  19    9   16 2
  20   10   11 1
  21   10   14 1
  22   10   31 1
  23   11   12 am
  24   11   13 2
  25   12   32 1
  26   14   15 3
  27   16   17 1
  28   17   20 ar
  29   17   19 ar
  30   18   19 ar
  31   18   22 ar
  32   18   33 1
  33   19   34 1
  34   20   21 ar
  35   20   23 1
  36   21   22 ar
  37   21   35 1
  38   22   36 1

#	End of record

