#	Name: ASD01870676
#	Creating user name:	WinNT
#	Creation time:	15. 06. 2019 19:39

#	Modifying user name:	WinNT
#	Modification time:	15. 06. 2019 19:39

#	Program:	/corina/corina34_cracker 3.40 0067  02.08.2006

@<TRIPOS>MOLECULE
ASD01870676
  37   40    0    0    0
SMALL
NO_CHARGES


@<TRIPOS>ATOM
   1 C1            -0.0174     1.4474     0.0142 C.2     
   2 C2             0.0021    -0.0041    -0.0008 C.2     
   3 C3             1.2283    -0.5353    -0.0714 C.2     
   4 S4             2.4387     0.6593    -0.1245 S.3     
   5 C5             1.2693     1.9672    -0.0495 C.2     
   6 C6            -1.2300    -0.8268     0.0578 C.ar    
   7 C7            -1.4321    -1.8508    -0.8662 C.ar    
   8 C8            -2.5806    -2.6137    -0.8064 C.ar    
   9 C9            -3.5302    -2.3637     0.1678 C.ar    
  10 C10           -3.3351    -1.3489     1.0874 C.ar    
  11 C11           -2.1880    -0.5830     1.0406 C.ar    
  12 N12           -1.0680     2.3086     0.0838 N.2     
  13 C13            1.4388     3.3735    -0.0446 C.2     
  14 N14            0.3426     4.1567     0.0219 N.am    
  15 C15           -0.8948     3.5944     0.0859 C.2     
  16 C16            0.4784     5.5507     0.0290 C.ar    
  17 C17            0.0301     6.2990    -1.0517 C.ar    
  18 C18            0.1651     7.6733    -1.0415 C.ar    
  19 C19            0.7464     8.3045     0.0431 C.ar    
  20 C20            1.1941     7.5623     1.1203 C.ar    
  21 C21            1.0564     6.1878     1.1188 C.ar    
  22 O22            2.5532     3.8662    -0.0989 O.2     
  23 C23            1.8279     8.2540     2.2997 C.3     
  24 H24            1.4262    -1.5968    -0.0919 H       
  25 H25           -0.6915    -2.0466    -1.6275 H       
  26 H26           -2.7384    -3.4071    -1.5220 H       
  27 H27           -4.4277    -2.9630     0.2106 H       
  28 H28           -4.0801    -1.1580     1.8456 H       
  29 H29           -2.0348     0.2064     1.7616 H       
  30 H30           -1.7598     4.2386     0.1426 H       
  31 H31           -0.4233     5.8067    -1.8993 H       
  32 H32           -0.1834     8.2558    -1.8816 H       
  33 H33            0.8511     9.3794     0.0486 H       
  34 H34            1.4019     5.6090     1.9626 H       
  35 H35            1.0581     8.5087     3.0281 H       
  36 H36            2.5588     7.5897     2.7607 H       
  37 H37            2.3250     9.1638     1.9632 H       
@<TRIPOS>BOND
   1    1    2 1
   2    1    5 2
   3    1   12 1
   4    2    3 2
   5    2    6 1
   6    3    4 1
   7    3   24 1
   8    4    5 1
   9    5   13 1
  10    6    7 ar
  11    6   11 ar
  12    7    8 ar
  13    7   25 1
  14    8    9 ar
  15    8   26 1
  16    9   10 ar
  17    9   27 1
  18   10   11 ar
  19   10   28 1
  20   11   29 1
  21   12   15 2
  22   13   14 am
  23   13   22 2
  24   14   15 1
  25   14   16 1
  26   15   30 1
  27   16   17 ar
  28   16   21 ar
  29   17   18 ar
  30   17   31 1
  31   18   19 ar
  32   18   32 1
  33   19   20 ar
  34   19   33 1
  35   20   21 ar
  36   20   23 1
  37   21   34 1
  38   23   35 1
  39   23   36 1
  40   23   37 1

#	End of record

