#	Name: ASD01410814
#	Creating user name:	WinNT
#	Creation time:	15. 06. 2019 19:18

#	Modifying user name:	WinNT
#	Modification time:	15. 06. 2019 19:18

#	Program:	/corina/corina34_cracker 3.40 0067  02.08.2006

@<TRIPOS>MOLECULE
ASD01410814
  71   71    0    0    0
SMALL
NO_CHARGES


@<TRIPOS>ATOM
   1 C1             0.0854     1.4142    -0.2273 C.3     
   2 C2             0.0772    -0.1160    -0.0273 C.3     
   3 N3            -0.0632    -0.3670     1.4145 N.am    
   4 C4            -0.1164     0.9282     2.1168 C.3     
   5 C5            -0.6189     1.9358     1.0530 C.3     
   6 C6             1.3912    -0.7140    -0.5340 C.3     
   7 C7             1.4781    -0.5417    -2.0286 C.2     
   8 O8             0.5378    -0.0827    -2.6419 O.2     
   9 N9             2.6008    -0.8977    -2.6838 N.am    
  10 O10            3.6986    -1.4336    -1.9679 O.3     
  11 C11           -1.0822     0.8593     3.2716 C.2     
  12 O12           -1.9139    -0.0161     3.3122 O.2     
  13 O13           -1.0184     1.7706     4.2551 O.3     
  14 C14           -1.9800     1.6427     5.3355 C.3     
  15 Si15           1.5893     3.2388    -1.2310 Si      
  16 C16            3.3748     3.7703    -1.2428 C.3     
  17 C17            0.5373     4.6115    -0.5383 C.3     
  18 C18            1.0438     2.8559    -2.9708 C.3     
  19 C19            3.8228     4.0847     0.1859 C.3     
  20 C20            4.2387     2.6429    -1.8117 C.3     
  21 C21            3.5293     5.0196    -2.1124 C.3     
  22 O22            1.4245     1.9070    -0.3041 O.3     
  23 C23            2.6853    -0.7302    -4.1368 C.3     
  24 C24            3.6706    -2.8566    -1.8405 C.3     
  25 O25           -0.1493    -1.6819     3.3400 O.3     
  26 C26           -0.2251    -3.0199     3.8987 C.3     
  27 C27            0.9866    -3.8336     3.4398 C.3     
  28 C28           -0.2335    -2.9350     5.4263 C.3     
  29 C29           -1.5083    -3.7011     3.4187 C.3     
  30 C30           -0.1326    -1.5801     1.9975 C.2     
  31 O31           -0.1800    -2.5820     1.3117 O.2     
  32 H32           -0.4771     1.6895    -1.1195 H       
  33 H33           -0.7637    -0.5555    -0.5637 H       
  34 H34            0.8763     1.2105     2.4677 H       
  35 H35           -0.2958     2.9492     1.2914 H       
  36 H36           -1.7029     1.8871     0.9500 H       
  37 H37            2.2294    -0.2033    -0.0601 H       
  38 H38            1.4261    -1.7753    -0.2880 H       
  39 H39           -1.8191     2.4399     6.0614 H       
  40 H40           -2.9904     1.7162     4.9333 H       
  41 H41           -1.8524     0.6762     5.8231 H       
  42 H42            0.6474     5.5016    -1.1578 H       
  43 H43           -0.5074     4.3006    -0.5314 H       
  44 H44            0.8565     4.8355     0.4796 H       
  45 H45            1.6592     2.0528    -3.3761 H       
  46 H46           -0.0009     2.5450    -2.9639 H       
  47 H47            1.1539     3.7460    -3.5902 H       
  48 H48            3.7127     3.1946     0.8054 H       
  49 H49            4.8675     4.3956     0.1790 H       
  50 H50            3.2073     4.8878     0.5912 H       
  51 H51            3.9196     2.4189    -2.8296 H       
  52 H52            5.2834     2.9539    -1.8186 H       
  53 H53            4.1286     1.7528    -1.1923 H       
  54 H54            2.9139     5.8228    -1.7071 H       
  55 H55            4.5740     5.3306    -2.1193 H       
  56 H56            3.2102     4.7956    -3.1302 H       
  57 H57            3.0830     0.2584    -4.3661 H       
  58 H58            3.3443    -1.4924    -4.5527 H       
  59 H59            1.6914    -0.8320    -4.5727 H       
  60 H60            2.7653    -3.1564    -1.3127 H       
  61 H61            3.6806    -3.3104    -2.8315 H       
  62 H62            4.5447    -3.1885    -1.2801 H       
  63 H63            1.9007    -3.3484     3.7818 H       
  64 H64            0.9296    -4.8381     3.8593 H       
  65 H65            0.9925    -3.8942     2.3515 H       
  66 H66           -1.0968    -2.3553     5.7532 H       
  67 H67           -0.2904    -3.9394     5.8458 H       
  68 H68            0.6806    -2.4497     5.7683 H       
  69 H69           -1.5023    -3.7616     2.3304 H       
  70 H70           -1.5652    -4.7055     3.8382 H       
  71 H71           -2.3715    -3.1214     3.7457 H       
@<TRIPOS>BOND
   1    1    2 1
   2    1   22 1
   3    1    5 1
   4    1   32 1
   5    2    3 1
   6    2    6 1
   7    2   33 1
   8    3    4 1
   9    3   30 am
  10    4    5 1
  11    4   11 1
  12    4   34 1
  13    5   35 1
  14    5   36 1
  15    6    7 1
  16    6   37 1
  17    6   38 1
  18    7    8 2
  19    7    9 am
  20    9   10 1
  21    9   23 1
  22   10   24 1
  23   11   12 2
  24   11   13 1
  25   13   14 1
  26   14   39 1
  27   14   40 1
  28   14   41 1
  29   15   16 1
  30   15   17 1
  31   15   18 1
  32   15   22 1
  33   16   19 1
  34   16   20 1
  35   16   21 1
  36   17   42 1
  37   17   43 1
  38   17   44 1
  39   18   45 1
  40   18   46 1
  41   18   47 1
  42   19   48 1
  43   19   49 1
  44   19   50 1
  45   20   51 1
  46   20   52 1
  47   20   53 1
  48   21   54 1
  49   21   55 1
  50   21   56 1
  51   23   57 1
  52   23   58 1
  53   23   59 1
  54   24   60 1
  55   24   61 1
  56   24   62 1
  57   25   26 1
  58   25   30 1
  59   26   27 1
  60   26   28 1
  61   26   29 1
  62   27   63 1
  63   27   64 1
  64   27   65 1
  65   28   66 1
  66   28   67 1
  67   28   68 1
  68   29   69 1
  69   29   70 1
  70   29   71 1
  71   30   31 2

#	End of record

