#	Name: ASD01883042
#	Creating user name:	WinNT
#	Creation time:	15. 06. 2019 19:45

#	Modifying user name:	WinNT
#	Modification time:	15. 06. 2019 19:45

#	Program:	/corina/corina34_cracker 3.40 0067  02.08.2006

@<TRIPOS>MOLECULE
ASD01883042
  48   50    0    0    0
SMALL
NO_CHARGES


@<TRIPOS>ATOM
   1 N1            -0.0684     1.2324     1.3347 N.am    
   2 C2            -0.0483     0.0622     0.6701 C.2     
   3 C3            -1.2576    -0.6366     0.4328 C.2     
   4 C4            -2.4610    -0.0820     0.9038 C.2     
   5 C5            -2.4158     1.1461     1.5927 C.2     
   6 C6            -1.2302     1.7644     1.7940 C.2     
   7 O7             1.0094    -0.3958     0.2724 O.2     
   8 C8            -1.2547    -1.8826    -0.2730 C.1     
   9 N9            -1.2524    -2.8710    -0.8329 N.1     
  10 C10            1.1900     1.9438     1.5728 C.3     
  11 C11            1.4650     2.8972     0.4082 C.3     
  12 C12           -5.4364    -1.5851    -0.8222 C.ar    
  13 C13           -3.7475    -0.7735     0.6802 C.ar    
  14 C14           -4.4783    -1.2616     1.7662 C.ar    
  15 C15           -6.1605    -2.0693     0.2609 C.ar    
  16 O16           -7.3424    -2.7046     0.0554 O.3     
  17 C17           -8.4785    -1.9590     0.0703 C.ar    
  18 C18           -8.4120    -0.5738     0.1821 C.ar    
  19 C19           -9.5975     0.1436     0.1923 C.ar    
  20 C20          -10.7976    -0.5347     0.0920 C.ar    
  21 N21          -10.8260    -1.8491    -0.0123 N.ar    
  22 C22           -9.7213    -2.5679    -0.0316 C.ar    
  23 C23           -4.2365    -0.9404    -0.6179 C.ar    
  24 C24            2.7792     3.6403     0.6568 C.3     
  25 C25           -5.6773    -1.9052     1.5538 C.ar    
  26 C26            3.0542     4.5937    -0.5078 C.3     
  27 C27           -9.8094    -4.0674    -0.1529 C.3     
  28 H28           -3.3272     1.5913     1.9636 H       
  29 H29           -1.2079     2.7053     2.3237 H       
  30 H30            1.1156     2.5136     2.4990 H       
  31 H31            2.0046     1.2242     1.6534 H       
  32 H32            1.5394     2.3274    -0.5180 H       
  33 H33            0.6503     3.6169     0.3276 H       
  34 H34           -5.8129    -1.7184    -1.8257 H       
  35 H35           -4.1033    -1.1348     2.7711 H       
  36 H36           -7.4598    -0.0701     0.2593 H       
  37 H37           -9.5839     1.2201     0.2780 H       
  38 H38          -11.7248     0.0192     0.0994 H       
  39 H39           -3.6743    -0.5647    -1.4600 H       
  40 H40            2.7048     4.2101     1.5831 H       
  41 H41            3.5938     2.9206     0.7374 H       
  42 H42           -6.2426    -2.2832     2.3928 H       
  43 H43            3.1286     4.0239    -1.4340 H       
  44 H44            2.2395     5.3133    -0.5883 H       
  45 H45            3.9904     5.1230    -0.3306 H       
  46 H46           -9.7960    -4.3482    -1.2061 H       
  47 H47           -8.9600    -4.5236     0.3556 H       
  48 H48          -10.7359    -4.4151     0.3040 H       
@<TRIPOS>BOND
   1    1    2 am
   2    1   10 1
   3    1    6 1
   4    2    3 1
   5    2    7 2
   6    3    4 2
   7    3    8 1
   8    4    5 1
   9    4   13 1
  10    5    6 2
  11    5   28 1
  12    6   29 1
  13    8    9 3
  14   10   11 1
  15   10   30 1
  16   10   31 1
  17   11   24 1
  18   11   32 1
  19   11   33 1
  20   12   23 ar
  21   12   15 ar
  22   12   34 1
  23   13   14 ar
  24   13   23 ar
  25   14   25 ar
  26   14   35 1
  27   15   16 1
  28   15   25 ar
  29   16   17 1
  30   17   18 ar
  31   17   22 ar
  32   18   19 ar
  33   18   36 1
  34   19   20 ar
  35   19   37 1
  36   20   21 ar
  37   20   38 1
  38   21   22 ar
  39   22   27 1
  40   23   39 1
  41   24   26 1
  42   24   40 1
  43   24   41 1
  44   25   42 1
  45   26   43 1
  46   26   44 1
  47   26   45 1
  48   27   46 1
  49   27   47 1
  50   27   48 1

#	End of record

