#	Name: ASD01880100
#	Creating user name:	WinNT
#	Creation time:	15. 06. 2019 19:40

#	Modifying user name:	WinNT
#	Modification time:	15. 06. 2019 19:40

#	Program:	/corina/corina34_cracker 3.40 0067  02.08.2006

@<TRIPOS>MOLECULE
ASD01880100
  68   72    0    0    0
SMALL
NO_CHARGES


@<TRIPOS>ATOM
   1 C1            -0.0166     1.3730     0.0096 C.ar    
   2 C2             0.0021    -0.0041     0.0020 C.ar    
   3 C3             1.2112    -0.6866    -0.0132 C.ar    
   4 C4             2.4179     0.0241    -0.0204 C.ar    
   5 C5             2.4022     1.4126    -0.0128 C.ar    
   6 C6             1.1832     2.0920     0.0020 C.ar    
   7 C7             3.7099    -0.7048    -0.0356 C.ar    
   8 C8             3.9465    -1.7277     0.8804 C.ar    
   9 C9             5.1504    -2.4029     0.8613 C.ar    
  10 C10            6.1207    -2.0657    -0.0647 C.ar    
  11 C11            5.8913    -1.0506    -0.9762 C.ar    
  12 C12            4.6893    -0.3728    -0.9700 C.ar    
  13 C13            6.9539    -0.6882    -1.9815 C.3     
  14 O14            6.7750    -1.4679    -3.1657 O.3     
  15 C15            7.6554    -1.2625    -4.1772 C.ar    
  16 C16            8.6732    -0.3272    -4.0325 C.ar    
  17 C17            9.5702    -0.1156    -5.0587 C.ar    
  18 C18            9.4549    -0.8436    -6.2451 C.ar    
  19 C19            8.4212    -1.7868    -6.3782 C.ar    
  20 C20            7.5421    -1.9922    -5.3557 C.ar    
  21 C21           10.7465     0.8259    -5.1552 C.3     
  22 C22           11.3604     0.6056    -6.5447 C.3     
  23 C23           10.5088    -0.4583    -7.1937 C.2     
  24 C24           11.3052     1.8992    -7.3598 C.3     
  25 C25           12.0918     3.0092    -6.6409 C.3     
  26 C26           13.2241     3.4370    -7.5973 C.3     
  27 C27           12.7080     3.0345    -9.0011 C.3     
  28 C28           11.9869     1.6912    -8.7279 C.3     
  29 O29           10.6669    -0.9156    -8.3060 O.2     
  30 C30            6.4375    -3.0060    -5.5076 C.3     
  31 C31            8.2866    -2.5778    -7.6539 C.3     
  32 O32            1.2236    -2.0430    -0.0206 O.3     
  33 C33           -0.0436    -2.7034    -0.0120 C.3     
  34 C34            1.1600     3.5667     0.0096 C.2     
  35 O35            2.2025     4.1907     0.0031 O.2     
  36 O36           -0.0173     4.2220     0.0239 O.3     
  37 H37           -0.9598     1.8989     0.0169 H       
  38 H38           -0.9268    -0.5549     0.0083 H       
  39 H39            3.3303     1.9650    -0.0179 H       
  40 H40            3.1896    -1.9916     1.6041 H       
  41 H41            5.3350    -3.1957     1.5711 H       
  42 H42            7.0611    -2.5965    -0.0760 H       
  43 H43            4.5113     0.4195    -1.6820 H       
  44 H44            6.8747     0.3705    -2.2283 H       
  45 H45            7.9381    -0.8901    -1.5588 H       
  46 H46            8.7617     0.2353    -3.1148 H       
  47 H47           10.4097     1.8576    -5.0539 H       
  48 H48           11.4777     0.5924    -4.3813 H       
  49 H49           12.3902     0.2604    -6.4520 H       
  50 H50           10.2692     2.2072    -7.5010 H       
  51 H51           11.4378     3.8563    -6.4340 H       
  52 H52           12.5129     2.6263    -5.7113 H       
  53 H53           13.3823     4.5141    -7.5434 H       
  54 H54           14.1446     2.9030    -7.3617 H       
  55 H55           12.0083     3.7778    -9.3832 H       
  56 H56           13.5389     2.8933    -9.6923 H       
  57 H57           12.7076     0.8752    -8.6749 H       
  58 H58           11.2422     1.4942    -9.4992 H       
  59 H59            6.7869    -3.9786    -5.1612 H       
  60 H60            5.5766    -2.6969    -4.9148 H       
  61 H61            6.1501    -3.0757    -6.5567 H       
  62 H62            8.8684    -3.4962    -7.5750 H       
  63 H63            7.2380    -2.8251    -7.8192 H       
  64 H64            8.6561    -1.9843    -8.4901 H       
  65 H65           -0.5948    -2.4204     0.8848 H       
  66 H66           -0.6117    -2.4109    -0.8951 H       
  67 H67            0.1090    -3.7826    -0.0193 H       
  68 H68            0.0181     5.1883     0.0285 H       
@<TRIPOS>BOND
   1    1    2 ar
   2    1    6 ar
   3    1   37 1
   4    2    3 ar
   5    2   38 1
   6    3    4 ar
   7    3   32 1
   8    4    5 ar
   9    4    7 1
  10    5    6 ar
  11    5   39 1
  12    6   34 1
  13    7    8 ar
  14    7   12 ar
  15    8    9 ar
  16    8   40 1
  17    9   10 ar
  18    9   41 1
  19   10   11 ar
  20   10   42 1
  21   11   12 ar
  22   11   13 1
  23   12   43 1
  24   13   14 1
  25   13   44 1
  26   13   45 1
  27   14   15 1
  28   15   16 ar
  29   15   20 ar
  30   16   17 ar
  31   16   46 1
  32   17   18 ar
  33   17   21 1
  34   18   19 ar
  35   18   23 1
  36   19   20 ar
  37   19   31 1
  38   20   30 1
  39   21   22 1
  40   21   47 1
  41   21   48 1
  42   22   23 1
  43   22   24 1
  44   22   49 1
  45   23   29 2
  46   24   25 1
  47   24   28 1
  48   24   50 1
  49   25   26 1
  50   25   51 1
  51   25   52 1
  52   26   27 1
  53   26   53 1
  54   26   54 1
  55   27   28 1
  56   27   55 1
  57   27   56 1
  58   28   57 1
  59   28   58 1
  60   30   59 1
  61   30   60 1
  62   30   61 1
  63   31   62 1
  64   31   63 1
  65   31   64 1
  66   32   33 1
  67   33   65 1
  68   33   66 1
  69   33   67 1
  70   34   35 2
  71   34   36 1
  72   36   68 1

#	End of record

