#	Name: ASD01884920
#	Creating user name:	WinNT
#	Creation time:	15. 06. 2019 19:49

#	Modifying user name:	WinNT
#	Modification time:	15. 06. 2019 19:49

#	Program:	/corina/corina34_cracker 3.40 0067  02.08.2006

@<TRIPOS>MOLECULE
ASD01884920
  49   53    0    0    0
SMALL
NO_CHARGES


@<TRIPOS>ATOM
   1 C1            -0.0166     1.3756     0.0096 C.ar    
   2 C2             0.0021    -0.0041     0.0020 C.ar    
   3 C3             1.2209    -0.6820    -0.0132 C.ar    
   4 C4             2.4141     0.0401    -0.0207 C.ar    
   5 C5             2.3824     1.4196    -0.0130 C.ar    
   6 C6             1.1703     2.0864     0.0021 C.ar    
   7 C7             1.2480    -2.1632    -0.0210 C.2     
   8 C8             1.7545    -2.8451    -1.1112 C.2     
   9 C9             0.7597    -2.8930     1.0926 C.2     
  10 C10            0.7848    -4.2372     1.0869 C.2     
  11 N11            1.2792    -4.9244     0.0110 N.pl3   
  12 C12            1.7678    -4.2524    -1.0899 C.2     
  13 Cl13           2.3647    -1.9790    -2.4863 Cl      
  14 C14            1.4269    -6.2505    -0.2689 C.2     
  15 N15            1.9650    -6.3416    -1.4641 N.2     
  16 N16            2.1689    -5.1691    -1.9528 N.2     
  17 N17            1.0734    -7.3109     0.5581 N.3     
  18 C18            1.3802    -8.5987    -0.0774 C.3     
  19 C19            0.8473    -9.7386     0.7936 C.3     
  20 C20            1.4976    -9.6636     2.1778 C.3     
  21 C21            1.2036    -8.2946     2.7976 C.3     
  22 C22            1.7261    -7.1966     1.8685 C.3     
  23 C23            0.9323   -10.7474     3.0592 C.ar    
  24 C24            1.7690   -11.7069     3.5977 C.ar    
  25 C25            1.2505   -12.7011     4.4062 C.ar    
  26 C26           -0.1047   -12.7354     4.6765 C.ar    
  27 C27           -0.9413   -11.7753     4.1388 C.ar    
  28 C28           -0.4221   -10.7786     3.3338 C.ar    
  29 H29           -0.9598     1.9017     0.0169 H       
  30 H30           -0.9251    -0.5578     0.0082 H       
  31 H31            3.3609    -0.4793    -0.0322 H       
  32 H32            3.3057     1.9799    -0.0188 H       
  33 H33            1.1505     3.1662     0.0081 H       
  34 H34            0.3663    -2.3664     1.9496 H       
  35 H35            0.4107    -4.7814     1.9414 H       
  36 H36            0.9084    -8.6408    -1.0591 H       
  37 H37            2.4596    -8.7008    -0.1887 H       
  38 H38           -0.2340    -9.6450     0.8940 H       
  39 H39            1.0889   -10.6948     0.3294 H       
  40 H40            2.5752    -9.7961     2.0817 H       
  41 H41            0.1279    -8.1783     2.9295 H       
  42 H42            1.6998    -8.2192     3.7652 H       
  43 H43            2.8040    -7.3052     1.7481 H       
  44 H44            1.5057    -6.2203     2.3001 H       
  45 H45            2.8278   -11.6801     3.3865 H       
  46 H46            1.9041   -13.4512     4.8264 H       
  47 H47           -0.5100   -13.5126     5.3076 H       
  48 H48           -2.0002   -11.8024     4.3497 H       
  49 H49           -1.0758   -10.0285     2.9137 H       
@<TRIPOS>BOND
   1    1    2 ar
   2    1    6 ar
   3    1   29 1
   4    2    3 ar
   5    2   30 1
   6    3    4 ar
   7    3    7 1
   8    4    5 ar
   9    4   31 1
  10    5    6 ar
  11    5   32 1
  12    6   33 1
  13    7    8 2
  14    7    9 1
  15    8   13 1
  16    8   12 1
  17    9   10 2
  18    9   34 1
  19   10   11 1
  20   10   35 1
  21   11   12 1
  22   11   14 1
  23   12   16 2
  24   14   15 2
  25   14   17 1
  26   15   16 1
  27   17   18 1
  28   17   22 1
  29   18   19 1
  30   18   36 1
  31   18   37 1
  32   19   20 1
  33   19   38 1
  34   19   39 1
  35   20   21 1
  36   20   23 1
  37   20   40 1
  38   21   22 1
  39   21   41 1
  40   21   42 1
  41   22   43 1
  42   22   44 1
  43   23   24 ar
  44   23   28 ar
  45   24   25 ar
  46   24   45 1
  47   25   26 ar
  48   25   46 1
  49   26   27 ar
  50   26   47 1
  51   27   28 ar
  52   27   48 1
  53   28   49 1

#	End of record

