#	Name: ASD01209179
#	Creating user name:	WinNT
#	Creation time:	15. 06. 2019 19:11

#	Modifying user name:	WinNT
#	Modification time:	15. 06. 2019 19:11

#	Program:	/corina/corina34_cracker 3.40 0067  02.08.2006

@<TRIPOS>MOLECULE
ASD01209179
  82   84    0    0    0
SMALL
NO_CHARGES


@<TRIPOS>ATOM
   1 O1            -0.0472     1.4626    -0.0050 O.3     
   2 O2             2.1134     2.1022     1.3496 O.3     
   3 C3             8.5153     9.3204     2.7629 C.ar    
   4 C4             8.1972     9.1774     4.1055 C.ar    
   5 C5             7.0738     8.4559     4.4834 C.ar    
   6 C6             6.2647     7.8759     3.5207 C.ar    
   7 C7             6.5811     8.0172     2.1689 C.ar    
   8 C8             7.7086     8.7480     1.7931 C.ar    
   9 O9             6.7672     8.3181     5.8003 O.3     
  10 C10            5.7210     7.3990     1.1378 C.2     
  11 N11            4.6294     6.6977     1.5027 N.am    
  12 O12            5.9982     7.5232    -0.0393 O.2     
  13 C13            3.8213     6.1168     0.5339 C.2     
  14 P14            1.2931     2.3545    -0.0126 P.3     
  15 O15            2.1320     1.9744    -1.1712 O.2     
  16 C16            0.8487     4.1181    -0.1367 C.3     
  17 N17            2.7524     5.4243     0.7761 N.2     
  18 S18            4.0872     6.2171    -1.1520 S.3     
  19 C19            2.6468     5.2467    -1.4476 C.2     
  20 C20            2.1024     4.9441    -0.2675 C.2     
  21 C21           -0.0314     0.0337    -0.0213 C.3     
  22 C22           -1.4680    -0.4924    -0.0082 C.3     
  23 C23            2.6931     0.8403     1.6867 C.3     
  24 C24            3.3963     0.9477     3.0413 C.3     
  25 O25            9.6170    10.0278     2.3983 O.3     
  26 C26            9.9523    10.0360     1.0092 C.3     
  27 C27           11.4500    10.3036     0.8476 C.3     
  28 C28            9.1584    11.1346     0.2994 C.3     
  29 O29           11.7523    11.6189     1.3172 O.3     
  30 C30           13.1330    11.9713     1.2103 C.3     
  31 C31            7.6449     8.9421     6.7395 C.3     
  32 C32            7.1415     8.6797     8.1603 C.3     
  33 C33            8.0671     9.3378     9.1508 C.ar    
  34 C34            7.8336    10.6386     9.5564 C.ar    
  35 C35            9.1464     8.6389     9.6581 C.ar    
  36 C36            9.9955     9.2425    10.5667 C.ar    
  37 C37            9.7656    10.5453    10.9676 C.ar    
  38 C38            8.6827    11.2422    10.4649 C.ar    
  39 S39           10.8475    11.3145    12.1262 S.o2    
  40 O40           10.0419    12.3010    12.7565 O.2     
  41 O41           11.3943    10.2323    12.8671 O.2     
  42 C42           12.1256    12.0953    11.1027 C.3     
  43 C43           13.1377    12.8051    12.0042 C.3     
  44 H44            8.8258     9.6287     4.8589 H       
  45 H45            5.3908     7.3142     3.8158 H       
  46 H46            7.9571     8.8598     0.7481 H       
  47 H47            4.4083     6.5986     2.4419 H       
  48 H48            0.2184     4.2733    -1.0123 H       
  49 H49            0.3065     4.4201     0.7594 H       
  50 H50            2.2685     4.9515    -2.4151 H       
  51 H51            0.4746    -0.3137    -0.9220 H       
  52 H52            0.4982    -0.3338     0.8577 H       
  53 H53           -1.9976    -0.1248    -0.8872 H       
  54 H54           -1.4560    -1.5823    -0.0207 H       
  55 H55           -1.9740    -0.1449     0.8925 H       
  56 H56            1.9100     0.0842     1.7428 H       
  57 H57            3.4173     0.5575     0.9228 H       
  58 H58            4.1793     1.7039     2.9852 H       
  59 H59            2.6720     1.2306     3.8052 H       
  60 H60            3.8384    -0.0148     3.2985 H       
  61 H61            9.7065     9.0690     0.5704 H       
  62 H62           12.0142     9.5725     1.4266 H       
  63 H63           11.7222    10.2220    -0.2047 H       
  64 H64            9.4141    11.1409    -0.7602 H       
  65 H65            8.0914    10.9440     0.4145 H       
  66 H66            9.4041    12.1017     0.7382 H       
  67 H67           13.2799    12.9835     1.5870 H       
  68 H68           13.7322    11.2748     1.7968 H       
  69 H69           13.4401    11.9243     0.1655 H       
  70 H70            8.6482     8.5310     6.6279 H       
  71 H71            7.6699    10.0162     6.5554 H       
  72 H72            6.1382     9.0909     8.2719 H       
  73 H73            7.1165     7.6057     8.3444 H       
  74 H74            6.9880    11.1833     9.1631 H       
  75 H75            9.3261     7.6210     9.3449 H       
  76 H76           10.8384     8.6962    10.9636 H       
  77 H77            8.5030    12.2601    10.7782 H       
  78 H78           12.6355    11.3328    10.5139 H       
  79 H79           11.6625    12.8212    10.4343 H       
  80 H80           13.9057    13.2743    11.3891 H       
  81 H81           12.6278    13.5676    12.5930 H       
  82 H82           13.6007    12.0792    12.6726 H       
@<TRIPOS>BOND
   1    1   21 1
   2    1   14 1
   3    2   23 1
   4    2   14 1
   5    3    4 ar
   6    3   25 1
   7    3    8 ar
   8    4    5 ar
   9    4   44 1
  10    5    6 ar
  11    5    9 1
  12    6    7 ar
  13    6   45 1
  14    7    8 ar
  15    7   10 1
  16    8   46 1
  17    9   31 1
  18   10   11 am
  19   10   12 2
  20   11   13 1
  21   11   47 1
  22   13   17 2
  23   13   18 1
  24   14   15 2
  25   14   16 1
  26   16   20 1
  27   16   48 1
  28   16   49 1
  29   17   20 1
  30   18   19 1
  31   19   20 2
  32   19   50 1
  33   21   22 1
  34   21   51 1
  35   21   52 1
  36   22   53 1
  37   22   54 1
  38   22   55 1
  39   23   24 1
  40   23   56 1
  41   23   57 1
  42   24   58 1
  43   24   59 1
  44   24   60 1
  45   25   26 1
  46   26   27 1
  47   26   28 1
  48   26   61 1
  49   27   29 1
  50   27   62 1
  51   27   63 1
  52   28   64 1
  53   28   65 1
  54   28   66 1
  55   29   30 1
  56   30   67 1
  57   30   68 1
  58   30   69 1
  59   31   32 1
  60   31   70 1
  61   31   71 1
  62   32   33 1
  63   32   72 1
  64   32   73 1
  65   33   34 ar
  66   33   35 ar
  67   34   38 ar
  68   34   74 1
  69   35   36 ar
  70   35   75 1
  71   36   37 ar
  72   36   76 1
  73   37   38 ar
  74   37   39 1
  75   38   77 1
  76   39   40 2
  77   39   41 2
  78   39   42 1
  79   42   43 1
  80   42   78 1
  81   42   79 1
  82   43   80 1
  83   43   81 1
  84   43   82 1

#	End of record

