#	Name: ASD01913186
#	Creating user name:	WinNT
#	Creation time:	15. 06. 2019 20:01

#	Modifying user name:	WinNT
#	Modification time:	15. 06. 2019 20:01

#	Program:	/corina/corina34_cracker 3.40 0067  02.08.2006

@<TRIPOS>MOLECULE
ASD01913186
  66   70    0    0    0
SMALL
NO_CHARGES


@<TRIPOS>ATOM
   1 C1            -0.0422     1.3913    -0.0077 C.3     
   2 N2             0.0123    -0.0736     0.0438 N.am    
   3 C3             0.9726    -0.6812     0.9801 C.3     
   4 C4             2.3796    -0.3003     0.5222 C.3     
   5 C5             2.4659     1.1734     0.2244 C.ar    
   6 C6             3.7287     1.7537     0.2045 C.ar    
   7 C7             3.8795     3.0967    -0.0703 C.ar    
   8 C8             2.7664     3.8748    -0.3295 C.ar    
   9 C9             1.5114     3.3023    -0.3068 C.ar    
  10 C10            1.3580     1.9512    -0.0265 C.ar    
  11 C11           -0.7846    -0.8327    -0.7341 C.2     
  12 C12           -1.8278    -0.1979    -1.5638 C.ar    
  13 C13           -2.1400    -0.7260    -2.8158 C.ar    
  14 C14           -3.1256    -0.1229    -3.5940 C.ar    
  15 C15           -3.7972     1.0125    -3.1112 C.ar    
  16 C16           -3.4778     1.5294    -1.8640 C.ar    
  17 C17           -2.5069     0.9297    -1.0916 C.ar    
  18 O18           -0.6444    -2.0403    -0.7526 O.2     
  19 C19           -3.4525    -0.6581    -4.8814 C.1     
  20 C20           -3.7205    -1.0969    -5.9368 C.1     
  21 C21           -4.0475    -1.6320    -7.2242 C.ar    
  22 C22           -5.0376    -1.0210    -7.9986 C.ar    
  23 C23           -5.3412    -1.5504    -9.2394 C.ar    
  24 C24           -4.6471    -2.6738    -9.6695 C.ar    
  25 C25           -3.6791    -3.2286    -8.8529 C.ar    
  26 N26           -3.4031    -2.7036    -7.6767 N.ar    
  27 O27           -4.7576     1.6036    -3.8645 O.3     
  28 C28           -5.3994     2.7543    -3.3113 C.3     
  29 S29            3.5656    -0.7151     1.8306 S.o2    
  30 O30            4.8952    -0.6696     1.3312 O.2     
  31 O31            3.2164    -0.0643     3.0447 O.2     
  32 N32            3.2988    -2.3206     2.1364 N.am    
  33 C33            4.1196    -3.3322     1.4687 C.3     
  34 C34            4.9439    -4.0925     2.5123 C.3     
  35 S35            3.8152    -4.8541     3.7149 S.o2    
  36 C36            2.8712    -3.4104     4.2850 C.3     
  37 C37            2.2484    -2.7150     3.0766 C.3     
  38 O38            2.9347    -5.7279     3.0217 O.2     
  39 O39            4.5804    -5.3551     4.8024 O.2     
  40 H40           -0.5696     1.7032    -0.9092 H       
  41 H41           -0.5708     1.7657     0.8689 H       
  42 H42            0.7969    -0.3015     1.9867 H       
  43 H43            0.8622    -1.7655     0.9697 H       
  44 H44            2.6284    -0.8631    -0.3776 H       
  45 H45            4.5995     1.1476     0.4064 H       
  46 H46            4.8645     3.5395    -0.0827 H       
  47 H47            2.8788     4.9264    -0.5483 H       
  48 H48            0.6416     3.9099    -0.5083 H       
  49 H49           -1.6195    -1.5989    -3.1811 H       
  50 H50           -3.9953     2.4026    -1.4951 H       
  51 H51           -2.2666     1.3344    -0.1196 H       
  52 H52           -5.5583    -0.1483    -7.6331 H       
  53 H53           -6.1016    -1.1003    -9.8603 H       
  54 H54           -4.8619    -3.1105   -10.6336 H       
  55 H55           -3.1384    -4.1022    -9.1860 H       
  56 H56           -5.8871     2.4832    -2.3749 H       
  57 H57           -4.6565     3.5293    -3.1230 H       
  58 H58           -6.1442     3.1279    -4.0140 H       
  59 H59            3.4737    -4.0308     0.9368 H       
  60 H60            4.7902    -2.8461     0.7601 H       
  61 H61            5.5299    -4.8684     2.0198 H       
  62 H62            5.6108    -3.3999     3.0257 H       
  63 H63            2.0846    -3.7347     4.9664 H       
  64 H64            3.5382    -2.7178     4.7984 H       
  65 H65            1.7072    -1.8292     3.4091 H       
  66 H66            1.5575    -3.3988     2.5833 H       
@<TRIPOS>BOND
   1    1    2 1
   2    1   10 1
   3    1   40 1
   4    1   41 1
   5    2    3 1
   6    2   11 am
   7    3    4 1
   8    3   42 1
   9    3   43 1
  10    4    5 1
  11    4   29 1
  12    4   44 1
  13    5    6 ar
  14    5   10 ar
  15    6    7 ar
  16    6   45 1
  17    7    8 ar
  18    7   46 1
  19    8    9 ar
  20    8   47 1
  21    9   10 ar
  22    9   48 1
  23   11   12 1
  24   11   18 2
  25   12   13 ar
  26   12   17 ar
  27   13   14 ar
  28   13   49 1
  29   14   15 ar
  30   14   19 1
  31   15   16 ar
  32   15   27 1
  33   16   17 ar
  34   16   50 1
  35   17   51 1
  36   19   20 3
  37   20   21 1
  38   21   22 ar
  39   21   26 ar
  40   22   23 ar
  41   22   52 1
  42   23   24 ar
  43   23   53 1
  44   24   25 ar
  45   24   54 1
  46   25   26 ar
  47   25   55 1
  48   27   28 1
  49   28   56 1
  50   28   57 1
  51   28   58 1
  52   29   30 2
  53   29   31 2
  54   29   32 am
  55   32   33 1
  56   32   37 1
  57   33   34 1
  58   33   59 1
  59   33   60 1
  60   34   35 1
  61   34   61 1
  62   34   62 1
  63   35   36 1
  64   35   38 2
  65   35   39 2
  66   36   37 1
  67   36   63 1
  68   36   64 1
  69   37   65 1
  70   37   66 1

#	End of record

