#	Name: ASD06170320
#	Creating user name:	WinNT
#	Creation time:	15. 06. 2019 21:05

#	Modifying user name:	WinNT
#	Modification time:	15. 06. 2019 21:05

#	Program:	/corina/corina34_cracker 3.40 0067  02.08.2006

@<TRIPOS>MOLECULE
ASD06170320
  68   72    0    0    0
SMALL
NO_CHARGES


@<TRIPOS>ATOM
   1 N1            -0.0232     1.5052    -0.0935 N.am    
   2 N2            -0.3230     0.3378     0.6148 N.pl3   
   3 C3             0.8089    -0.3423     0.8785 C.2     
   4 C4             1.8752     0.3599     0.3514 C.2     
   5 C5             1.3118     1.5640    -0.2796 C.2     
   6 C6             3.2917    -0.0201     0.4094 C.2     
   7 O7             3.6230    -1.0500     0.9663 O.2     
   8 N8             4.2255     0.7716    -0.1543 N.am    
   9 C9            -1.6690    -0.0831     1.0118 C.3     
  10 C10            0.8974    -1.6493     1.6236 C.3     
  11 C11            5.5796     0.4848     0.0185 C.ar    
  12 C12            5.9711    -0.8046     0.3592 C.ar    
  13 C13            7.3167    -1.0782     0.5281 C.ar    
  14 C14            8.2315    -0.0439     0.3487 C.ar    
  15 C15            7.7680     1.2175     0.0093 C.ar    
  16 N16            6.4779     1.4422    -0.1492 N.ar    
  17 O17            9.5633    -0.2684     0.5052 O.3     
  18 N18           11.5743    -2.0957    -2.5974 N.ar    
  19 C19           12.2812    -1.6997    -1.5323 C.ar    
  20 C20           11.6289    -1.0682    -0.4454 C.ar    
  21 C21           10.2313    -0.8679    -0.5107 C.ar    
  22 C22            9.5656    -1.3028    -1.6434 C.ar    
  23 C23           10.2762    -1.9149    -2.6678 C.ar    
  24 O24            1.9287     2.4403    -0.8560 O.2     
  25 C25           -0.9522     2.4508    -0.5397 C.ar    
  26 C26           -1.9312     2.9258     0.3235 C.ar    
  27 C27           12.3717    -0.6548     0.6702 C.ar    
  28 C28           13.7163    -0.8624     0.7033 C.ar    
  29 C29           14.3704    -1.4847    -0.3639 C.ar    
  30 C30           13.6694    -1.9013    -1.4728 C.ar    
  31 O31           15.7135    -1.6797    -0.3063 O.3     
  32 C32           -2.2757    -0.9559    -0.0886 C.3     
  33 C33           -2.8467     3.8598    -0.1200 C.ar    
  34 C34           -2.7897     4.3219    -1.4222 C.ar    
  35 C35           -1.8166     3.8507    -2.2843 C.ar    
  36 C36           -0.8942     2.9212    -1.8452 C.ar    
  37 C37           -1.3977    -2.1905    -0.3026 C.3     
  38 C38           -3.6814    -1.3954     0.3259 C.3     
  39 C39           -2.3548    -0.1547    -1.3897 C.3     
  40 H40            3.9558     1.5409    -0.6800 H       
  41 H41           -1.6126    -0.6539     1.9386 H       
  42 H42           -2.2945     0.7965     1.1642 H       
  43 H43            0.8176    -2.4760     0.9177 H       
  44 H44            1.8535    -1.7068     2.1439 H       
  45 H45            0.0852    -1.7103     2.3480 H       
  46 H46            5.2341    -1.5831     0.4908 H       
  47 H47            7.6498    -2.0708     0.7931 H       
  48 H48            8.4716     2.0246    -0.1314 H       
  49 H49            8.4976    -1.1676    -1.7300 H       
  50 H50            9.7462    -2.2503    -3.5470 H       
  51 H51           -1.9766     2.5648     1.3404 H       
  52 H52           11.8779    -0.1726     1.5008 H       
  53 H53           14.2847    -0.5422     1.5641 H       
  54 H54           14.1841    -2.3815    -2.2919 H       
  55 H55           15.9718    -2.5234     0.0894 H       
  56 H56           -3.6082     4.2295     0.5507 H       
  57 H57           -3.5070     5.0521    -1.7667 H       
  58 H58           -1.7752     4.2130    -3.3008 H       
  59 H59           -0.1342     2.5539    -2.5188 H       
  60 H60           -1.3413    -2.7613     0.6243 H       
  61 H61           -1.8300    -2.8123    -1.0865 H       
  62 H62           -0.3963    -1.8774    -0.5979 H       
  63 H63           -4.3069    -0.5158     0.4783 H       
  64 H64           -4.1136    -2.0172    -0.4580 H       
  65 H65           -3.6250    -1.9662     1.2528 H       
  66 H66           -1.3534     0.1584    -1.6850 H       
  67 H67           -2.7871    -0.7765    -2.1736 H       
  68 H68           -2.9803     0.7249    -1.2373 H       
@<TRIPOS>BOND
   1    1    2 1
   2    1    5 am
   3    1   25 1
   4    2    3 1
   5    2    9 1
   6    3    4 2
   7    3   10 1
   8    4    5 1
   9    4    6 1
  10    5   24 2
  11    6    7 2
  12    6    8 am
  13    8   11 1
  14    8   40 1
  15    9   32 1
  16    9   41 1
  17    9   42 1
  18   10   43 1
  19   10   44 1
  20   10   45 1
  21   11   12 ar
  22   11   16 ar
  23   12   13 ar
  24   12   46 1
  25   13   14 ar
  26   13   47 1
  27   14   15 ar
  28   14   17 1
  29   15   16 ar
  30   15   48 1
  31   17   21 1
  32   18   19 ar
  33   18   23 ar
  34   19   20 ar
  35   19   30 ar
  36   20   21 ar
  37   20   27 ar
  38   21   22 ar
  39   22   23 ar
  40   22   49 1
  41   23   50 1
  42   25   26 ar
  43   25   36 ar
  44   26   33 ar
  45   26   51 1
  46   27   28 ar
  47   27   52 1
  48   28   29 ar
  49   28   53 1
  50   29   30 ar
  51   29   31 1
  52   30   54 1
  53   31   55 1
  54   32   37 1
  55   32   38 1
  56   32   39 1
  57   33   34 ar
  58   33   56 1
  59   34   35 ar
  60   34   57 1
  61   35   36 ar
  62   35   58 1
  63   36   59 1
  64   37   60 1
  65   37   61 1
  66   37   62 1
  67   38   63 1
  68   38   64 1
  69   38   65 1
  70   39   66 1
  71   39   67 1
  72   39   68 1

#	End of record

