#	Name: ASD07030045
#	Creating user name:	WinNT
#	Creation time:	15. 06. 2019 21:08

#	Modifying user name:	WinNT
#	Modification time:	15. 06. 2019 21:08

#	Program:	/corina/corina34_cracker 3.40 0067  02.08.2006

@<TRIPOS>MOLECULE
ASD07030045
  47   49    0    0    0
SMALL
NO_CHARGES


@<TRIPOS>ATOM
   1 N1            -0.0180     1.4748     0.0102 N.3     
   2 C2             0.0021    -0.0041     0.0020 C.3     
   3 C3             1.3327    -0.4343    -0.6429 C.3     
   4 C4             2.0698     0.8855    -0.9664 C.3     
   5 C5             1.4054     1.8991    -0.0012 C.3     
   6 N6             1.0802    -1.1926    -1.8754 N.3     
   7 C7            -0.7101     1.9854     1.2011 C.3     
   8 C8            -0.4971     3.4968     1.3059 C.3     
   9 N9            -1.1892     4.0074     2.4969 N.3     
  10 C10           -1.0063     5.4588     2.6303 C.3     
  11 C11           -2.0706     6.2365     3.4071 C.3     
  12 C12           -0.6894     6.0058     4.0236 C.3     
  13 C13           -2.3978     7.6296     2.9346 C.ar    
  14 C14           -3.6844     7.9398     2.5356 C.ar    
  15 C15           -3.9845     9.2177     2.1021 C.ar    
  16 C16           -2.9981    10.1855     2.0681 C.ar    
  17 C17           -1.7117     9.8756     2.4679 C.ar    
  18 C18           -1.4125     8.5989     2.9055 C.ar    
  19 C19            2.3405    -1.6109    -2.5037 C.3     
  20 C20            0.2132    -2.3492    -1.6136 C.3     
  21 H21           -0.0550    -0.3818     1.0229 H       
  22 H22           -0.8346    -0.3836    -0.5845 H       
  23 H23            1.9165    -1.0319     0.0571 H       
  24 H24            3.1354     0.7938    -0.7558 H       
  25 H25            1.9042     1.1755    -2.0040 H       
  26 H26            1.5010     2.9150    -0.3846 H       
  27 H27            1.8381     1.8210     0.9962 H       
  28 H28           -1.7762     1.7734     1.1205 H       
  29 H29           -0.3092     1.4994     2.0906 H       
  30 H30            0.5691     3.7088     1.3865 H       
  31 H31           -0.8980     3.9828     0.4164 H       
  32 H32           -2.1689     3.7667     2.4767 H       
  33 H33           -0.5428     5.9548     1.7775 H       
  34 H34           -2.9064     5.6712     3.8191 H       
  35 H35           -0.6166     5.2887     4.8412 H       
  36 H36           -0.0174     6.8617     4.0874 H       
  37 H37           -4.4551     7.1837     2.5622 H       
  38 H38           -4.9896     9.4598     1.7897 H       
  39 H39           -3.2324    11.1837     1.7287 H       
  40 H40           -0.9409    10.6316     2.4410 H       
  41 H41           -0.4083     8.3577     3.2214 H       
  42 H42            2.8987    -2.2426    -1.8128 H       
  43 H43            2.1245    -2.1702    -3.4139 H       
  44 H44            2.9332    -0.7301    -2.7505 H       
  45 H45           -0.7405    -2.0052    -1.2134 H       
  46 H46            0.0424    -2.8929    -2.5428 H       
  47 H47            0.6944    -3.0077    -0.8905 H       
@<TRIPOS>BOND
   1    1    2 1
   2    1    5 1
   3    1    7 1
   4    2    3 1
   5    2   21 1
   6    2   22 1
   7    3    4 1
   8    3    6 1
   9    3   23 1
  10    4    5 1
  11    4   24 1
  12    4   25 1
  13    5   26 1
  14    5   27 1
  15    6   19 1
  16    6   20 1
  17    7    8 1
  18    7   28 1
  19    7   29 1
  20    8    9 1
  21    8   30 1
  22    8   31 1
  23    9   10 1
  24    9   32 1
  25   10   11 1
  26   10   12 1
  27   10   33 1
  28   11   12 1
  29   11   13 1
  30   11   34 1
  31   12   35 1
  32   12   36 1
  33   13   14 ar
  34   13   18 ar
  35   14   15 ar
  36   14   37 1
  37   15   16 ar
  38   15   38 1
  39   16   17 ar
  40   16   39 1
  41   17   18 ar
  42   17   40 1
  43   18   41 1
  44   19   42 1
  45   19   43 1
  46   19   44 1
  47   20   45 1
  48   20   46 1
  49   20   47 1

#	End of record

