#	Name: ASD01914143
#	Creating user name:	WinNT
#	Creation time:	15. 06. 2019 20:02

#	Modifying user name:	WinNT
#	Modification time:	15. 06. 2019 20:02

#	Program:	/corina/corina34_cracker 3.40 0067  02.08.2006

@<TRIPOS>MOLECULE
ASD01914143
  48   51    0    0    0
SMALL
NO_CHARGES


@<TRIPOS>ATOM
   1 C1            -2.7641    -0.0094    -1.2562 C.2     
   2 C2            -2.1450    -1.2927    -0.8644 C.2     
   3 N3            -2.7771    -2.3554    -0.3128 N.2     
   4 C4            -1.8496    -3.2619    -0.1333 C.2     
   5 O5            -0.6985    -2.7413    -0.5706 O.3     
   6 N6            -0.8822    -1.6185    -0.9907 N.2     
   7 C7            -2.0432    -4.6350     0.4566 C.3     
   8 C8            -1.6325    -5.6941    -0.5689 C.3     
   9 C9            -0.1702    -5.4812    -0.9670 C.3     
  10 C10            0.7194    -5.6358     0.2706 C.3     
  11 N11            0.2392    -4.7213     1.3155 N.am    
  12 C12           -1.1748    -4.7800     1.7103 C.3     
  13 C13            2.1650    -5.2883    -0.0904 C.3     
  14 C14            1.0797    -3.8453     1.9007 C.2     
  15 C15            0.5558    -2.8405     2.8552 C.ar    
  16 C16           -0.7327    -2.3147     2.7096 C.ar    
  17 C17           -1.1842    -1.3809     3.6201 C.ar    
  18 N18           -0.4204    -0.9816     4.6183 N.ar    
  19 C19            0.8029    -1.4509     4.7947 C.ar    
  20 C20            1.3324    -2.3971     3.9274 C.ar    
  21 O21            2.2672    -3.8795     1.6454 O.2     
  22 C22           -2.1198     1.0559    -1.8113 C.2     
  23 C23           -3.0777     2.0596    -2.0237 C.2     
  24 C24           -4.2702     1.5862    -1.5971 C.2     
  25 N25           -4.0904     0.3190    -1.1312 N.pl3   
  26 Cl26          -2.7839     3.6270    -2.7096 Cl      
  27 O27            1.5478    -1.0063     5.8381 O.3     
  28 C28            0.9461    -0.0367     6.6982 C.3     
  29 H29           -3.0915    -4.7725     0.7217 H       
  30 H30           -1.7494    -6.6863    -0.1329 H       
  31 H31           -2.2654    -5.6090    -1.4522 H       
  32 H32            0.1148    -6.2213    -1.7147 H       
  33 H33           -0.0478    -4.4800    -1.3803 H       
  34 H34            0.6676    -6.6629     0.6318 H       
  35 H35           -1.3948    -3.9678     2.4031 H       
  36 H36           -1.3811    -5.7373     2.1889 H       
  37 H37            2.2362    -4.2256    -0.3222 H       
  38 H38            2.8159    -5.5206     0.7526 H       
  39 H39            2.4729    -5.8710    -0.9585 H       
  40 H40           -1.3656    -2.6352     1.8952 H       
  41 H41           -2.1776    -0.9708     3.5133 H       
  42 H42            2.3321    -2.7780     4.0750 H       
  43 H43           -1.0669     1.1165    -2.0443 H       
  44 H44           -5.2081     2.1210    -1.6254 H       
  45 H45           -4.7831    -0.2532    -0.7656 H       
  46 H46            0.6905     0.8520     6.1211 H       
  47 H47            0.0420    -0.4548     7.1408 H       
  48 H48            1.6467     0.2325     7.4886 H       
@<TRIPOS>BOND
   1    1    2 1
   2    1   22 2
   3    1   25 1
   4    2    3 1
   5    2    6 2
   6    3    4 2
   7    4    5 1
   8    4    7 1
   9    5    6 1
  10    7    8 1
  11    7   12 1
  12    7   29 1
  13    8    9 1
  14    8   30 1
  15    8   31 1
  16    9   10 1
  17    9   32 1
  18    9   33 1
  19   10   11 1
  20   10   13 1
  21   10   34 1
  22   11   12 1
  23   11   14 am
  24   12   35 1
  25   12   36 1
  26   13   37 1
  27   13   38 1
  28   13   39 1
  29   14   15 1
  30   14   21 2
  31   15   16 ar
  32   15   20 ar
  33   16   17 ar
  34   16   40 1
  35   17   18 ar
  36   17   41 1
  37   18   19 ar
  38   19   20 ar
  39   19   27 1
  40   20   42 1
  41   22   23 1
  42   22   43 1
  43   23   24 2
  44   23   26 1
  45   24   25 1
  46   24   44 1
  47   25   45 1
  48   27   28 1
  49   28   46 1
  50   28   47 1
  51   28   48 1

#	End of record

