#	Name: ASD01870048
#	Creating user name:	WinNT
#	Creation time:	15. 06. 2019 19:38

#	Modifying user name:	WinNT
#	Modification time:	15. 06. 2019 19:38

#	Program:	/corina/corina34_cracker 3.40 0067  02.08.2006

@<TRIPOS>MOLECULE
ASD01870048
  37   40    0    0    0
SMALL
NO_CHARGES


@<TRIPOS>ATOM
   1 C1            -0.0167     1.3774     0.0096 C.ar    
   2 C2             0.0021    -0.0041     0.0020 C.ar    
   3 N3             1.1354    -0.6695    -0.0124 N.ar    
   4 C4             2.3261    -0.0578    -0.0204 C.ar    
   5 C5             2.3957     1.3311    -0.0137 C.ar    
   6 C6             1.1851     2.0719     0.0019 C.ar    
   7 S7             3.9418    -0.7499    -0.0395 S.3     
   8 C8             4.7120     0.8266    -0.0385 C.2     
   9 C9             3.7719     1.8347    -0.0242 C.2     
  10 C10            6.0889     1.1773    -0.0506 C.2     
  11 N11            6.4256     2.4824    -0.0475 N.am    
  12 C12            5.4572     3.4333    -0.0332 C.2     
  13 N13            4.1962     3.1281    -0.0221 N.2     
  14 N14            1.2027     3.4594     0.0092 N.3     
  15 C15            7.8371     2.8747    -0.0592 C.3     
  16 O16            6.9500     0.3135    -0.0630 O.2     
  17 C17            0.5124     4.0008    -1.1691 C.3     
  18 C18            0.6190     3.9867     1.2498 C.3     
  19 C19            8.2302     3.7243    -1.2792 C.3     
  20 C20            9.0913     4.5623    -0.3195 C.3     
  21 C21            8.1396     4.1125     0.8016 C.3     
  22 H22           -0.9557     1.9109     0.0170 H       
  23 H23           -0.9315    -0.5470     0.0084 H       
  24 H24            5.7447     4.4743    -0.0305 H       
  25 H25            8.5105     2.0377     0.1253 H       
  26 H26           -0.5244     3.6643    -1.1692 H       
  27 H27            0.5409     5.0900    -1.1383 H       
  28 H28            1.0084     3.6497    -2.0740 H       
  29 H29            1.1925     3.6255     2.1034 H       
  30 H30            0.6453     5.0762     1.2293 H       
  31 H31           -0.4139     3.6498     1.3373 H       
  32 H32            8.8107     3.1782    -2.0228 H       
  33 H33            7.3969     4.2766    -1.7135 H       
  34 H34           10.1085     4.1875    -0.2052 H       
  35 H35            9.0537     5.6328    -0.5209 H       
  36 H36            7.2815     4.7710     0.9362 H       
  37 H37            8.6469     3.8799     1.7379 H       
@<TRIPOS>BOND
   1    1    2 ar
   2    1    6 ar
   3    1   22 1
   4    2    3 ar
   5    2   23 1
   6    3    4 ar
   7    4    5 ar
   8    4    7 1
   9    5    6 ar
  10    5    9 1
  11    6   14 1
  12    7    8 1
  13    8    9 2
  14    8   10 1
  15    9   13 1
  16   10   11 am
  17   10   16 2
  18   11   12 1
  19   11   15 1
  20   12   13 2
  21   12   24 1
  22   14   17 1
  23   14   18 1
  24   15   19 1
  25   15   21 1
  26   15   25 1
  27   17   26 1
  28   17   27 1
  29   17   28 1
  30   18   29 1
  31   18   30 1
  32   18   31 1
  33   19   20 1
  34   19   32 1
  35   19   33 1
  36   20   21 1
  37   20   34 1
  38   20   35 1
  39   21   36 1
  40   21   37 1

#	End of record

