#	Name: ASD01913428
#	Creating user name:	WinNT
#	Creation time:	15. 06. 2019 20:01

#	Modifying user name:	WinNT
#	Modification time:	15. 06. 2019 20:01

#	Program:	/corina/corina34_cracker 3.40 0067  02.08.2006

@<TRIPOS>MOLECULE
ASD01913428
  32   34    0    0    0
SMALL
NO_CHARGES


@<TRIPOS>ATOM
   1 C1            -0.3670    -0.7396    -2.2421 C.ar    
   2 C2            -0.6987    -0.0455    -1.0829 C.ar    
   3 C3            -0.5525     1.3342    -1.0585 C.ar    
   4 N4            -0.1066     1.9820    -2.1163 N.ar    
   5 C5             0.2164     1.3542    -3.2302 C.ar    
   6 C6             0.0983    -0.0192    -3.3306 C.ar    
   7 C7            -1.1819    -2.0673    -0.0311 C.ar    
   8 C8            -0.0694    -2.7915     0.3743 C.ar    
   9 C9            -0.0884    -4.1759     0.3398 C.ar    
  10 C10           -1.2159    -4.8441    -0.0988 C.ar    
  11 C11           -2.3387    -4.1223    -0.5076 C.ar    
  12 C12           -2.3169    -2.7279    -0.4719 C.ar    
  13 C13           -3.5464    -4.8332    -0.9778 C.2     
  14 N14           -3.5647    -6.1804    -1.0123 N.am    
  15 O15           -4.5230    -4.2027    -1.3333 O.2     
  16 O16           -1.1596    -0.7092     0.0098 O.3     
  17 C17           -4.6996    -6.8483    -1.4541 C.2     
  18 F18            0.9980    -4.8748     0.7353 F       
  19 S19           -4.8606    -8.5477    -1.5497 S.3     
  20 C20           -6.5016    -8.3682    -2.1651 C.2     
  21 C21           -6.7745    -7.0642    -2.2414 C.2     
  22 N22           -5.7928    -6.2741    -1.8488 N.2     
  23 H23           -0.4656    -1.8140    -2.2910 H       
  24 H24           -0.8070     1.8830    -0.1638 H       
  25 H25            0.5779     1.9210    -4.0755 H       
  26 H26            0.3655    -0.5250    -4.2466 H       
  27 H27            0.8141    -2.2738     0.7175 H       
  28 H28           -1.2282    -5.9237    -0.1255 H       
  29 H29           -3.1830    -2.1647    -0.7867 H       
  30 H30           -2.7854    -6.6834    -0.7286 H       
  31 H31           -7.1697    -9.1729    -2.4342 H       
  32 H32           -7.7236    -6.6860    -2.5917 H       
@<TRIPOS>BOND
   1    1    2 ar
   2    1    6 ar
   3    1   23 1
   4    2    3 ar
   5    2   16 1
   6    3    4 ar
   7    3   24 1
   8    4    5 ar
   9    5    6 ar
  10    5   25 1
  11    6   26 1
  12    7    8 ar
  13    7   12 ar
  14    7   16 1
  15    8    9 ar
  16    8   27 1
  17    9   10 ar
  18    9   18 1
  19   10   11 ar
  20   10   28 1
  21   11   12 ar
  22   11   13 1
  23   12   29 1
  24   13   14 am
  25   13   15 2
  26   14   17 1
  27   14   30 1
  28   17   19 1
  29   17   22 2
  30   19   20 1
  31   20   21 2
  32   20   31 1
  33   21   22 1
  34   21   32 1

#	End of record

