#	Name: ASD01914122
#	Creating user name:	WinNT
#	Creation time:	15. 06. 2019 20:02

#	Modifying user name:	WinNT
#	Modification time:	15. 06. 2019 20:02

#	Program:	/corina/corina34_cracker 3.40 0067  02.08.2006

@<TRIPOS>MOLECULE
ASD01914122
  47   50    0    0    0
SMALL
NO_CHARGES


@<TRIPOS>ATOM
   1 C1             1.1560     1.7046     0.3185 C.ar    
   2 C2             1.0238     0.3325     0.2969 C.ar    
   3 C3             2.1596    -0.4744     0.2046 C.ar    
   4 C4             3.4240     0.1140     0.1347 C.ar    
   5 C5             3.5446     1.4872     0.1571 C.ar    
   6 C6             2.4136     2.2835     0.2489 C.ar    
   7 F7             2.5375     3.6287     0.2700 F       
   8 C8             2.0242    -1.9454     0.1815 C.2     
   9 N9             3.0049    -2.8272     0.0978 N.2     
  10 C10            2.4094    -4.0298     0.1116 C.2     
  11 N11            1.1270    -3.8332     0.2007 N.2     
  12 O12            0.8816    -2.6463     0.2473 O.3     
  13 C13            3.1015    -5.3663     0.0366 C.3     
  14 C14            2.7804    -6.1791     1.2930 C.3     
  15 C15            3.5092    -7.5235     1.2330 C.3     
  16 C16            3.0228    -8.3094     0.0112 C.3     
  17 N17            3.1947    -7.4758    -1.1864 N.am    
  18 C18            2.6105    -6.1278    -1.1987 C.3     
  19 C19            1.5438    -8.6612     0.1833 C.3     
  20 C20            3.8754    -7.9390    -2.2534 C.2     
  21 C21            3.9301    -7.1426    -3.4980 C.ar    
  22 C22            5.1254    -7.0375    -4.2106 C.ar    
  23 C23            5.1704    -6.2928    -5.3714 C.ar    
  24 C24            4.0343    -5.6505    -5.8295 C.ar    
  25 C25            2.8446    -5.7503    -5.1274 C.ar    
  26 C26            2.7851    -6.4975    -3.9680 C.ar    
  27 Cl27           1.4240    -4.9405    -5.7103 Cl      
  28 O28            4.4444    -9.0114    -2.1927 O.2     
  29 H29            0.2778     2.3297     0.3854 H       
  30 H30            0.0436    -0.1175     0.3516 H       
  31 H31            4.3058    -0.5055     0.0636 H       
  32 H32            4.5221     1.9434     0.1031 H       
  33 H33            4.1787    -5.2148    -0.0332 H       
  34 H34            3.1067    -5.6282     2.1751 H       
  35 H35            1.7055    -6.3509     1.3494 H       
  36 H36            4.5826    -7.3521     1.1516 H       
  37 H37            3.2987    -8.0922     2.1387 H       
  38 H38            3.6082    -9.2230    -0.0923 H       
  39 H39            1.5232    -6.2005    -1.1748 H       
  40 H40            2.9239    -5.6019    -2.1005 H       
  41 H41            0.9612    -7.7450     0.2801 H       
  42 H42            1.1997    -9.2203    -0.6869 H       
  43 H43            1.4167    -9.2690     1.0791 H       
  44 H44            6.0136    -7.5378    -3.8541 H       
  45 H45            6.0950    -6.2110    -5.9234 H       
  46 H46            4.0752    -5.0683    -6.7382 H       
  47 H47            1.8570    -6.5752    -3.4212 H       
@<TRIPOS>BOND
   1    1    2 ar
   2    1    6 ar
   3    1   29 1
   4    2    3 ar
   5    2   30 1
   6    3    4 ar
   7    3    8 1
   8    4    5 ar
   9    4   31 1
  10    5    6 ar
  11    5   32 1
  12    6    7 1
  13    8    9 2
  14    8   12 1
  15    9   10 1
  16   10   11 2
  17   10   13 1
  18   11   12 1
  19   13   14 1
  20   13   18 1
  21   13   33 1
  22   14   15 1
  23   14   34 1
  24   14   35 1
  25   15   16 1
  26   15   36 1
  27   15   37 1
  28   16   17 1
  29   16   19 1
  30   16   38 1
  31   17   18 1
  32   17   20 am
  33   18   39 1
  34   18   40 1
  35   19   41 1
  36   19   42 1
  37   19   43 1
  38   20   21 1
  39   20   28 2
  40   21   22 ar
  41   21   26 ar
  42   22   23 ar
  43   22   44 1
  44   23   24 ar
  45   23   45 1
  46   24   25 ar
  47   24   46 1
  48   25   26 ar
  49   25   27 1
  50   26   47 1

#	End of record

