#	Name: ASD01208854
#	Creating user name:	WinNT
#	Creation time:	15. 06. 2019 19:10

#	Modifying user name:	WinNT
#	Modification time:	15. 06. 2019 19:10

#	Program:	/corina/corina34_cracker 3.40 0067  02.08.2006

@<TRIPOS>MOLECULE
ASD01208854
  55   59    0    0    0
SMALL
NO_CHARGES


@<TRIPOS>ATOM
   1 C1            -0.3147     1.7796     1.0104 C.2     
   2 C2            -0.2253     0.4164     0.4460 C.ar    
   3 C3             1.0177    -0.2025     0.3050 C.ar    
   4 C4             1.0971    -1.4798    -0.2243 C.ar    
   5 C5            -0.0567    -2.1441    -0.6147 C.ar    
   6 C6            -1.2945    -1.5328    -0.4764 C.ar    
   7 C7            -1.3836    -0.2575     0.0580 C.ar    
   8 O8             0.6952     2.3633     1.3525 O.2     
   9 N9            -1.5156     2.3776     1.1405 N.am    
  10 S10           -3.0517     4.5336     1.8921 S.3     
  11 C11           -1.5996     3.6586     1.6708 C.2     
  12 N12           -0.5885     4.3647     2.0706 N.2     
  13 C13           -0.8509     5.5662     2.5498 C.2     
  14 C14           -2.1453     5.8908     2.5553 C.2     
  15 O15           -2.4215    -2.1876    -0.8607 O.3     
  16 C16           -2.9889    -1.8395    -2.0445 C.ar    
  17 C17           -4.1612    -2.4586    -2.4595 C.ar    
  18 C18           -4.7399    -2.1081    -3.6601 C.ar    
  19 C19           -4.1468    -1.1289    -4.4594 C.ar    
  20 C20           -2.9688    -0.5086    -4.0386 C.ar    
  21 C21           -2.3987    -0.8611    -2.8345 C.ar    
  22 O22           -4.3025     0.1729    -6.6148 O.3     
  23 C23           -4.7639    -0.7505    -5.7476 C.2     
  24 N24           -5.8637    -1.2508    -6.2611 N.2     
  25 N25           -6.0993    -0.6849    -7.3923 N.2     
  26 C26           -5.1677     0.1914    -7.6439 C.2     
  27 C27           -5.0767     1.0669    -8.8671 C.3     
  28 O28            2.3071    -2.0832    -0.3619 O.3     
  29 C29            2.3093    -3.4327    -0.8320 C.3     
  30 C30            2.2469    -3.4404    -2.3607 C.3     
  31 C31            3.5897    -4.1314    -0.3703 C.3     
  32 C32            3.8380    -4.2277     1.1364 C.3     
  33 C33            3.4422    -5.4759     0.3450 C.3     
  34 H34            1.9164     0.3141     0.6080 H       
  35 H35            0.0089    -3.1399    -1.0277 H       
  36 H36           -2.3478     0.2160     0.1695 H       
  37 H37           -2.3211     1.9135     0.8638 H       
  38 H38           -0.0805     6.2326     2.9085 H       
  39 H39           -2.5640     6.8228     2.9053 H       
  40 H40           -4.6194    -3.2159    -1.8407 H       
  41 H41           -5.6509    -2.5904    -3.9824 H       
  42 H42           -2.5069     0.2490    -4.6544 H       
  43 H43           -1.4895    -0.3791    -2.5066 H       
  44 H44           -4.5028     0.5542    -9.6390 H       
  45 H45           -6.0795     1.2768    -9.2390 H       
  46 H46           -4.5820     2.0029    -8.6079 H       
  47 H47            1.4432    -3.9587    -0.4303 H       
  48 H48            2.2486    -4.4697    -2.7192 H       
  49 H49            1.3347    -2.9426    -2.6896 H       
  50 H50            3.1130    -2.9143    -2.7623 H       
  51 H51            4.4576    -3.9970    -1.0158 H       
  52 H52            4.8694    -4.1570     1.4820 H       
  53 H53            3.0892    -3.7932     1.7987 H       
  54 H54            2.4330    -5.8626     0.4866 H       
  55 H55            4.2132    -6.2263     0.1700 H       
@<TRIPOS>BOND
   1    1    2 1
   2    1    8 2
   3    1    9 am
   4    2    3 ar
   5    2    7 ar
   6    3    4 ar
   7    3   34 1
   8    4    5 ar
   9    4   28 1
  10    5    6 ar
  11    5   35 1
  12    6    7 ar
  13    6   15 1
  14    7   36 1
  15    9   11 1
  16    9   37 1
  17   10   11 1
  18   10   14 1
  19   11   12 2
  20   12   13 1
  21   13   14 2
  22   13   38 1
  23   14   39 1
  24   15   16 1
  25   16   17 ar
  26   16   21 ar
  27   17   18 ar
  28   17   40 1
  29   18   19 ar
  30   18   41 1
  31   19   20 ar
  32   19   23 1
  33   20   21 ar
  34   20   42 1
  35   21   43 1
  36   22   23 1
  37   22   26 1
  38   23   24 2
  39   24   25 1
  40   25   26 2
  41   26   27 1
  42   27   44 1
  43   27   45 1
  44   27   46 1
  45   28   29 1
  46   29   30 1
  47   29   31 1
  48   29   47 1
  49   30   48 1
  50   30   49 1
  51   30   50 1
  52   31   32 1
  53   31   33 1
  54   31   51 1
  55   32   33 1
  56   32   52 1
  57   32   53 1
  58   33   54 1
  59   33   55 1

#	End of record

