#	Name: ASD01190032
#	Creating user name:	WinNT
#	Creation time:	15. 06. 2019 19:07

#	Modifying user name:	WinNT
#	Modification time:	15. 06. 2019 19:07

#	Program:	/corina/corina34_cracker 3.40 0067  02.08.2006

@<TRIPOS>MOLECULE
ASD01190032
  70   73    0    0    0
SMALL
NO_CHARGES


@<TRIPOS>ATOM
   1 C1            -0.8162     3.8483    -0.0842 C.2     
   2 C2            -1.1936     2.4274     0.0018 C.2     
   3 C3            -0.1239     1.4195     0.0631 C.2     
   4 C4             1.1497     1.7881     0.0809 C.2     
   5 C5             1.5859     3.2231     0.0609 C.3     
   6 C6             0.4614     4.1936    -0.0594 C.2     
   7 C7             2.2231     0.7164     0.1099 C.3     
   8 C8             3.2133     1.0010    -1.0238 C.3     
   9 C9             3.7528     2.4264    -0.8887 C.3     
  10 C10            2.6026     3.4303    -1.0659 C.3     
  11 C11            4.7694     2.6988    -1.9824 C.3     
  12 C12            5.3346     4.1238    -1.7373 C.3     
  13 C13            4.2247     5.1063    -2.0582 C.3     
  14 C14            3.1016     4.8718    -1.0357 C.3     
  15 C15            6.0431     1.8474    -1.9341 C.3     
  16 C16            7.0675     2.7086    -2.7220 C.3     
  17 C17            6.5667     4.1719    -2.6348 C.3     
  18 C18            7.6260     5.0505    -2.0209 C.2     
  19 C19            7.5869     6.5414    -2.2375 C.3     
  20 Cl20           1.7980     3.1372    -2.6525 Cl      
  21 O21           -2.3639     2.0946     0.0221 O.2     
  22 O22            3.5936     5.1673     0.2729 O.3     
  23 O23            6.2090     4.6607    -3.9545 O.3     
  24 O24            8.5061     4.5600    -1.3552 O.2     
  25 O25            8.7667     7.1474    -1.6467 O.3     
  26 C26            8.8854     8.4802    -1.7532 C.2     
  27 O27            8.0318     9.1193    -2.3213 O.2     
  28 C28            7.1783     4.6737    -4.8829 C.2     
  29 O29            8.3064     4.3615    -4.5830 O.2     
  30 C30            9.9741    10.6835    -1.4225 C.3     
  31 C31           10.0834     9.1794    -1.1641 C.3     
  32 C32            2.3124     3.5091     1.3766 C.3     
  33 C33            5.7503     4.2719    -0.2723 C.3     
  34 C34            8.1308     5.0073    -7.1480 C.3     
  35 C35            6.8597     5.0777    -6.2993 C.3     
  36 H36           -1.5800     4.6067    -0.1719 H       
  37 H37           -0.3780     0.3703     0.0943 H       
  38 H38            0.7039     5.2436    -0.1310 H       
  39 H39            2.7430     0.7423     1.0676 H       
  40 H40            1.7686    -0.2635    -0.0361 H       
  41 H41            4.0405     0.2933    -0.9693 H       
  42 H42            2.7072     0.8939    -1.9832 H       
  43 H43            4.2063     2.5563     0.0939 H       
  44 H44            4.2966     2.6397    -2.9627 H       
  45 H45            4.5968     6.1274    -1.9735 H       
  46 H46            3.8517     4.9286    -3.0669 H       
  47 H47            2.2706     5.5403    -1.2609 H       
  48 H48            6.3716     1.7029    -0.9048 H       
  49 H49            5.8849     0.8885    -2.4277 H       
  50 H50            8.0550     2.6235    -2.2686 H       
  51 H51            7.1042     2.3872    -3.7629 H       
  52 H52            7.5666     6.7527    -3.3067 H       
  53 H53            6.6933     6.9534    -1.7687 H       
  54 H54            3.8985     6.0784     0.3820 H       
  55 H55           10.8406    11.1892    -0.9964 H       
  56 H56            9.9385    10.8660    -2.4965 H       
  57 H57            9.0652    11.0667    -0.9585 H       
  58 H58           10.1189     8.9969    -0.0901 H       
  59 H59           10.9922     8.7962    -1.6281 H       
  60 H60            3.3256     3.1103     1.3264 H       
  61 H61            2.3536     4.5857     1.5423 H       
  62 H62            1.7757     3.0353     2.1985 H       
  63 H63            6.6511     3.6861    -0.0892 H       
  64 H64            5.9490     5.3214    -0.0553 H       
  65 H65            4.9469     3.9136     0.3714 H       
  66 H66            7.9003     5.2995    -8.1725 H       
  67 H67            8.8800     5.6840    -6.7370 H       
  68 H68            8.5176     3.9883    -7.1391 H       
  69 H69            6.1105     4.4010    -6.7103 H       
  70 H70            6.4728     6.0967    -6.3082 H       
@<TRIPOS>BOND
   1    1    2 1
   2    1    6 2
   3    1   36 1
   4    2    3 1
   5    2   21 2
   6    3    4 2
   7    3   37 1
   8    4    5 1
   9    4    7 1
  10    5    6 1
  11    5   10 1
  12    5   32 1
  13    6   38 1
  14    7    8 1
  15    7   39 1
  16    7   40 1
  17    8    9 1
  18    8   41 1
  19    8   42 1
  20    9   10 1
  21    9   11 1
  22    9   43 1
  23   10   20 1
  24   10   14 1
  25   11   12 1
  26   11   15 1
  27   11   44 1
  28   12   13 1
  29   12   17 1
  30   12   33 1
  31   13   14 1
  32   13   45 1
  33   13   46 1
  34   14   22 1
  35   14   47 1
  36   15   16 1
  37   15   48 1
  38   15   49 1
  39   16   17 1
  40   16   50 1
  41   16   51 1
  42   17   18 1
  43   17   23 1
  44   18   19 1
  45   18   24 2
  46   19   25 1
  47   19   52 1
  48   19   53 1
  49   22   54 1
  50   23   28 1
  51   25   26 1
  52   26   27 2
  53   26   31 1
  54   28   29 2
  55   28   35 1
  56   30   31 1
  57   30   55 1
  58   30   56 1
  59   30   57 1
  60   31   58 1
  61   31   59 1
  62   32   60 1
  63   32   61 1
  64   32   62 1
  65   33   63 1
  66   33   64 1
  67   33   65 1
  68   34   35 1
  69   34   66 1
  70   34   67 1
  71   34   68 1
  72   35   69 1
  73   35   70 1

#	End of record

