#	Name: ASD01912020
#	Creating user name:	WinNT
#	Creation time:	15. 06. 2019 19:58

#	Modifying user name:	WinNT
#	Modification time:	15. 06. 2019 19:58

#	Program:	/corina/corina34_cracker 3.40 0067  02.08.2006

@<TRIPOS>MOLECULE
ASD01912020
  35   38    0    0    0
SMALL
NO_CHARGES


@<TRIPOS>ATOM
   1 C1             0.1629     1.0863     0.8389 C.ar    
   2 C2             0.0029    -0.0054     0.0041 C.ar    
   3 C3             1.0283    -0.3942    -0.8413 C.ar    
   4 C4             2.2207     0.3096    -0.8547 C.ar    
   5 C5             2.3850     1.4121    -0.0131 C.ar    
   6 C6             1.3460     1.7959     0.8350 C.ar    
   7 C7             3.6566     2.1699    -0.0206 C.ar    
   8 N8             4.8226     1.5368     0.0650 N.ar    
   9 C9             5.9616     2.2113     0.0586 C.ar    
  10 N10            5.9966     3.5345    -0.0324 N.ar    
  11 C11            4.8861     4.2427    -0.1213 C.ar    
  12 C12            3.6538     3.5782    -0.1248 C.ar    
  13 C13            2.4248     4.3070    -0.2201 C.1     
  14 N14            1.4498     4.8850    -0.2957 N.1     
  15 N15            7.1537     1.5142     0.1501 N.pl3   
  16 C16            8.3535     2.1955     0.1454 C.2     
  17 O17            9.5662     1.6207     0.2291 O.3     
  18 C18           10.5002     2.5987     0.1941 C.ar    
  19 C19            9.8009     3.8100     0.0842 C.ar    
  20 N20            8.4773     3.4943     0.0532 N.2     
  21 C21           11.8849     2.6044     0.2429 C.ar    
  22 C22           12.5704     3.8007     0.1833 C.ar    
  23 C23           11.8832     5.0001     0.0752 C.ar    
  24 C24           10.5066     5.0126     0.0246 C.ar    
  25 F25            3.2219    -0.0692    -1.6789 F       
  26 F26            0.8653    -1.4615    -1.6534 F       
  27 H27           -0.6427     1.3867     1.4925 H       
  28 H28           -0.9256    -0.5570     0.0122 H       
  29 H29            1.4675     2.6478     1.4876 H       
  30 H30            4.9278     5.3194    -0.1949 H       
  31 H31            7.1458     0.5465     0.2176 H       
  32 H32           12.4269     1.6741     0.3278 H       
  33 H33           13.6497     3.8027     0.2215 H       
  34 H34           12.4304     5.9301     0.0301 H       
  35 H35            9.9756     5.9493    -0.0594 H       
@<TRIPOS>BOND
   1    1    2 ar
   2    1    6 ar
   3    1   27 1
   4    2    3 ar
   5    2   28 1
   6    3    4 ar
   7    3   26 1
   8    4    5 ar
   9    4   25 1
  10    5    6 ar
  11    5    7 1
  12    6   29 1
  13    7    8 ar
  14    7   12 ar
  15    8    9 ar
  16    9   10 ar
  17    9   15 1
  18   10   11 ar
  19   11   12 ar
  20   11   30 1
  21   12   13 1
  22   13   14 3
  23   15   16 1
  24   15   31 1
  25   16   17 1
  26   16   20 2
  27   17   18 1
  28   18   19 ar
  29   18   21 ar
  30   19   20 1
  31   19   24 ar
  32   21   22 ar
  33   21   32 1
  34   22   23 ar
  35   22   33 1
  36   23   24 ar
  37   23   34 1
  38   24   35 1

#	End of record

