#	Name: ASD07301337
#	Creating user name:	WinNT
#	Creation time:	15. 06. 2019 21:11

#	Modifying user name:	WinNT
#	Modification time:	15. 06. 2019 21:11

#	Program:	/corina/corina34_cracker 3.40 0067  02.08.2006

@<TRIPOS>MOLECULE
ASD07301337
  35   36    0    0    0
SMALL
NO_CHARGES


@<TRIPOS>ATOM
   1 C1            -0.0179     1.4671     0.0101 C.2     
   2 C2             0.0021    -0.0041     0.0020 C.2     
   3 C3             1.2725    -0.6350    -0.0135 C.2     
   4 C4             2.3716     0.1567    -0.0197 C.2     
   5 N5             2.2551     1.5069    -0.0109 N.pl3   
   6 N6             1.1272     2.1159     0.0027 N.2     
   7 O7            -1.0315    -0.6546     0.0088 O.2     
   8 C8            -1.3000     2.2027     0.0202 C.2     
   9 C9            -1.3039     3.6153     0.0279 C.2     
  10 C10           -2.4766     4.2881     0.0372 C.2     
  11 O11           -2.3535     1.5906     0.0219 O.2     
  12 N12           -2.4803     5.6533     0.0446 N.pl3   
  13 C13           -1.2136     6.3893     0.0426 C.3     
  14 C14           -3.7510     6.3824     0.0546 C.3     
  15 C15            3.4244     2.2746    -0.0175 C.ar    
  16 C16            3.6376     3.2284     0.9717 C.ar    
  17 C17            4.7943     3.9844     0.9618 C.ar    
  18 C18            5.7385     3.7932    -0.0305 C.ar    
  19 C19            5.5289     2.8457    -1.0156 C.ar    
  20 C20            4.3779     2.0821    -1.0087 C.ar    
  21 Cl21           2.4521     3.4695     2.2167 Cl      
  22 H22            1.3606    -1.7114    -0.0198 H       
  23 H23            3.3531    -0.2937    -0.0315 H       
  24 H24           -0.3700     4.1578     0.0264 H       
  25 H25           -3.4104     3.7455     0.0387 H       
  26 H26           -0.9043     6.5774    -0.9856 H       
  27 H27           -1.3440     7.3385     0.5622 H       
  28 H28           -0.4499     5.7995     0.5496 H       
  29 H29           -4.0612     6.5576     1.0848 H       
  30 H30           -3.6257     7.3379    -0.4546 H       
  31 H31           -4.5115     5.7940    -0.4588 H       
  32 H32            4.9610     4.7255     1.7295 H       
  33 H33            6.6415     4.3855    -0.0362 H       
  34 H34            6.2682     2.6998    -1.7893 H       
  35 H35            4.2176     1.3391    -1.7759 H       
@<TRIPOS>BOND
   1    1    2 1
   2    1    6 2
   3    1    8 1
   4    2    3 1
   5    2    7 2
   6    3    4 2
   7    3   22 1
   8    4    5 1
   9    4   23 1
  10    5    6 1
  11    5   15 1
  12    8    9 1
  13    8   11 2
  14    9   10 2
  15    9   24 1
  16   10   12 1
  17   10   25 1
  18   12   13 1
  19   12   14 1
  20   13   26 1
  21   13   27 1
  22   13   28 1
  23   14   29 1
  24   14   30 1
  25   14   31 1
  26   15   16 ar
  27   15   20 ar
  28   16   17 ar
  29   16   21 1
  30   17   18 ar
  31   17   32 1
  32   18   19 ar
  33   18   33 1
  34   19   20 ar
  35   19   34 1
  36   20   35 1

#	End of record

