#	Name: ASD03092798
#	Creating user name:	WinNT
#	Creation time:	15. 06. 2019 20:33

#	Modifying user name:	WinNT
#	Modification time:	15. 06. 2019 20:33

#	Program:	/corina/corina34_cracker 3.40 0067  02.08.2006

@<TRIPOS>MOLECULE
ASD03092798
  49   51    0    0    0
SMALL
NO_CHARGES


@<TRIPOS>ATOM
   1 C1             1.3663     1.7442    -0.3965 C.3     
   2 C2             1.7682     0.2714    -0.4985 C.3     
   3 C3             0.7005    -0.4904    -1.2407 C.2     
   4 O4            -0.3310     0.0660    -1.5617 O.2     
   5 C5             0.8981    -1.8465    -1.5620 C.2     
   6 C6             1.4178    -2.3426    -2.7613 C.2     
   7 C7             1.4396    -3.7406    -2.6528 C.2     
   8 C8             1.9211    -4.7067    -3.7044 C.3     
   9 C9             0.9423    -4.0717    -1.4122 C.2     
  10 C10            0.7895    -5.4436    -0.8846 C.ar    
  11 C11            0.2502    -6.4483    -1.6901 C.ar    
  12 C12            0.1106    -7.7269    -1.1922 C.ar    
  13 C13            0.5037    -8.0149     0.1042 C.ar    
  14 Cl14           0.3247    -9.6266     0.7238 Cl      
  15 C15            1.0393    -7.0225     0.9081 C.ar    
  16 C16            1.1893    -5.7415     0.4196 C.ar    
  17 N17            0.6194    -2.9247    -0.7480 N.pl3   
  18 C18            0.0649    -2.8504     0.6059 C.3     
  19 C19            1.8611    -1.5427    -3.9267 C.ar    
  20 C20            0.9395    -0.7802    -4.6439 C.ar    
  21 C21            1.3585    -0.0372    -5.7285 C.ar    
  22 C22            2.6897    -0.0481    -6.1052 C.ar    
  23 C23            3.6086    -0.8024    -5.3977 C.ar    
  24 C24            3.2028    -1.5446    -4.3076 C.ar    
  25 S25            3.2168     0.9024    -7.4921 S.o2    
  26 N26            3.6426     2.3996    -6.9270 N.am    
  27 O27            4.4127     0.2962    -7.9628 O.2     
  28 O28            2.0688     1.0928    -8.3077 O.2     
  29 H29            1.2526     2.1600    -1.3977 H       
  30 H30            0.4213     1.8265     0.1405 H       
  31 H31            2.1385     2.2952     0.1403 H       
  32 H32            2.7131     0.1890    -1.0356 H       
  33 H33            1.8818    -0.1444     0.5026 H       
  34 H34            2.9858    -4.8943    -3.5653 H       
  35 H35            1.3722    -5.6442    -3.6152 H       
  36 H36            1.7535    -4.2803    -4.6935 H       
  37 H37           -0.0573    -6.2247    -2.7010 H       
  38 H38           -0.3064    -8.5049    -1.8144 H       
  39 H39            1.3440    -7.2531     1.9182 H       
  40 H40            1.6109    -4.9694     1.0460 H       
  41 H41           -1.0218    -2.7861     0.5504 H       
  42 H42            0.3480    -3.7429     1.1640 H       
  43 H43            0.4559    -1.9670     1.1107 H       
  44 H44           -0.1000    -0.7715    -4.3512 H       
  45 H45            0.6458     0.5536    -6.2847 H       
  46 H46            4.6464    -0.8069    -5.6966 H       
  47 H47            3.9219    -2.1293    -3.7531 H       
  48 H48            3.5711     2.5991    -5.9805 H       
  49 H49            3.9634     3.0771    -7.5426 H       
@<TRIPOS>BOND
   1    1    2 1
   2    1   29 1
   3    1   30 1
   4    1   31 1
   5    2    3 1
   6    2   32 1
   7    2   33 1
   8    3    4 2
   9    3    5 1
  10    5   17 1
  11    5    6 2
  12    6    7 1
  13    6   19 1
  14    7    8 1
  15    7    9 2
  16    8   34 1
  17    8   35 1
  18    8   36 1
  19    9   10 1
  20    9   17 1
  21   10   16 ar
  22   10   11 ar
  23   11   12 ar
  24   11   37 1
  25   12   13 ar
  26   12   38 1
  27   13   14 1
  28   13   15 ar
  29   15   16 ar
  30   15   39 1
  31   16   40 1
  32   17   18 1
  33   18   41 1
  34   18   42 1
  35   18   43 1
  36   19   24 ar
  37   19   20 ar
  38   20   21 ar
  39   20   44 1
  40   21   22 ar
  41   21   45 1
  42   22   23 ar
  43   22   25 1
  44   23   24 ar
  45   23   46 1
  46   24   47 1
  47   25   26 am
  48   25   27 2
  49   25   28 2
  50   26   48 1
  51   26   49 1

#	End of record

