#	Name: ASD00731050
#	Creating user name:	WinNT
#	Creation time:	15. 06. 2019 18:37

#	Modifying user name:	WinNT
#	Modification time:	15. 06. 2019 18:37

#	Program:	/corina/corina34_cracker 3.40 0067  02.08.2006

@<TRIPOS>MOLECULE
ASD00731050
 236  238    0    0    0
SMALL
NO_CHARGES


@<TRIPOS>ATOM
   1 C1            -0.0426     1.2366    -0.4147 C.2     
   2 O2            -0.1968     0.2413    -1.0903 O.2     
   3 N3             2.3421     1.0083    -0.8021 N.am    
   4 C4             1.2869     1.9461    -0.4106 C.3     
   5 C5             1.2463     3.1109    -1.4018 C.3     
   6 C6             2.5958     3.8319    -1.3971 C.3     
   7 O7             0.9779     2.6112    -2.7134 O.3     
   8 C8            -3.4203     2.1868     0.0096 C.2     
   9 O9            -3.0767     3.3487    -0.0440 O.2     
  10 N10           -1.0620     1.7112     0.3283 N.am    
  11 C11           -2.3916     1.1057     0.2196 C.3     
  12 C12           -2.7105     0.3412     1.5059 C.3     
  13 C13           -1.7218    -0.7826     1.6806 C.2     
  14 O14           -0.8224    -0.9249     0.8865 O.2     
  15 O15           -1.8403    -1.6255     2.7185 O.3     
  16 C16           -7.0644     2.4310     0.1637 C.2     
  17 O17           -7.1748     1.3187     0.6345 O.2     
  18 N18           -4.7222     1.8625    -0.1186 N.am    
  19 C19           -5.7222     2.9134    -0.3228 C.3     
  20 C20           -5.8108     3.2507    -1.8125 C.3     
  21 C21           -4.4854     3.8573    -2.2777 C.3     
  22 C22           -4.5739     4.1946    -3.7675 C.3     
  23 N23           -3.3049     4.7753    -4.2129 N.pl3   
  24 C24           -3.1472     5.1594    -5.5236 C.2     
  25 N25           -4.1267     5.0068    -6.3698 N.2     
  26 N26           -1.9562     5.7044    -5.9416 N.pl3   
  27 C27          -10.5403     3.5118    -0.1728 C.2     
  28 O28          -10.2574     4.3520    -1.0004 O.2     
  29 N29           -8.1422     3.2354     0.0755 N.am    
  30 C30           -9.4470     2.7664     0.5484 C.3     
  31 C31           -9.5649     3.0183     2.0529 C.3     
  32 C32           -8.5346     2.1647     2.7952 C.3     
  33 C33           -8.5669     2.5078     4.2858 C.3     
  34 C34           -8.8677     0.6835     2.6054 C.3     
  35 C35          -14.1418     3.9759     0.2475 C.2     
  36 O36          -14.1424     3.4292     1.3301 O.2     
  37 N37          -11.8325     3.2446     0.1018 N.am    
  38 C38          -12.8953     3.9692    -0.5993 C.3     
  39 C39          -13.1886     3.2795    -1.9332 C.3     
  40 C40          -11.9615     3.3824    -2.8412 C.3     
  41 C41          -12.2548     2.6927    -4.1751 C.3     
  42 N42          -11.0798     2.7912    -5.0445 N.pl3   
  43 C43          -11.1081     2.2398    -6.3036 C.2     
  44 N44          -12.1804     1.6294    -6.7238 N.2     
  45 N45          -10.0055     2.3323    -7.1196 N.pl3   
  46 C46          -17.6760     4.7597    -0.2607 C.2     
  47 O47          -17.5384     4.8612    -1.4614 O.2     
  48 N48          -15.2561     4.5893    -0.1982 N.am    
  49 C49          -16.4679     4.5958     0.6250 C.3     
  50 C50          -16.4029     5.7570     1.6191 C.3     
  51 C51          -15.2498     5.5265     2.5980 C.3     
  52 C52          -15.1848     6.6878     3.5920 C.3     
  53 C53          -14.0317     6.4573     4.5709 C.3     
  54 N54          -13.9694     7.5723     5.5253 N.3     
  55 C55          -21.2108     5.5607     0.2153 C.2     
  56 O56          -21.0488     5.8338     1.3858 O.2     
  57 N57          -18.9095     4.7936     0.2815 N.am    
  58 C58          -20.0839     4.9530    -0.5796 C.3     
  59 C59          -20.5153     3.5851    -1.1122 C.3     
  60 C60          -19.4367     3.0317    -2.0075 C.2     
  61 C61          -19.3768     3.1369    -3.3443 C.2     
  62 N62          -18.2530     2.5117    -3.8117 N.pl3   
  63 C63          -17.5442     1.9752    -2.7602 C.ar    
  64 C64          -16.3577     1.2547    -2.6736 C.ar    
  65 C65          -15.8932     0.8466    -1.4423 C.ar    
  66 C66          -16.5976     1.1472    -0.2848 C.ar    
  67 C67          -17.7658     1.8537    -0.3468 C.ar    
  68 C68          -18.2515     2.2824    -1.5833 C.ar    
  69 C69          -24.8118     6.0098    -0.2256 C.2     
  70 O70          -24.8336     5.3130    -1.2180 O.2     
  71 N71          -22.3987     5.8007    -0.3745 N.am    
  72 C72          -23.4941     6.3915     0.3982 C.3     
  73 C73          -23.3531     7.9150     0.4003 C.3     
  74 C74          -28.2881     7.1016     0.0686 C.2     
  75 O75          -27.9896     8.0518     0.7606 O.2     
  76 N76          -25.9659     6.4429     0.3193 N.am    
  77 C77          -27.2468     6.0719    -0.2872 C.3     
  78 C78          -27.6827     4.7029     0.2390 C.3     
  79 C79          -26.7046     3.6530    -0.2215 C.ar    
  80 C80          -25.6046     3.3444     0.5566 C.ar    
  81 C81          -24.7074     2.3814     0.1342 C.ar    
  82 C82          -24.9104     1.7267    -1.0662 C.ar    
  83 C83          -26.0109     2.0347    -1.8440 C.ar    
  84 C84          -26.9105     2.9946    -1.4195 C.ar    
  85 C85          -31.1606     7.6347     1.3065 C.2     
  86 O86          -30.7799     6.6612     1.9125 O.2     
  87 N87          -29.5510     6.9665    -0.3822 N.am    
  88 C88          -30.5632     7.9676    -0.0364 C.3     
  89 C89          -31.6644     7.9674    -1.0986 C.3     
  90 C90          -32.6556     9.0955    -0.8057 C.3     
  91 C91          -33.6857     9.1752    -1.9342 C.3     
  92 C92          -32.3976     6.6248    -1.0729 C.3     
  93 O93          -32.1156     8.4197     1.8294 O.3     
  94 C94            3.6129     1.2203    -0.4063 C.2     
  95 O95            3.8828     2.1874     0.2739 O.2     
  96 C96           21.7786    -3.3198     0.3569 C.3     
  97 C97           20.6765    -2.3404     0.7657 C.3     
  98 C98           19.3386    -2.8091     0.1903 C.3     
  99 C99           18.2365    -1.8296     0.5991 C.3     
 100 C100          16.8985    -2.2983     0.0237 C.3     
 101 C101          15.7965    -1.3189     0.4326 C.3     
 102 C102          14.4585    -1.7875    -0.1428 C.3     
 103 C103          13.3564    -0.8081     0.2660 C.3     
 104 C104          12.0185    -1.2767    -0.3094 C.3     
 105 C105          10.9164    -0.2973     0.0995 C.3     
 106 C106           9.5784    -0.7659    -0.4759 C.3     
 107 C107           8.4764     0.2135    -0.0671 C.3     
 108 C108           7.1384    -0.2552    -0.6425 C.3     
 109 C109           6.0363     0.7243    -0.2336 C.3     
 110 C110           4.6984     0.2556    -0.8090 C.3     
 111 H111           2.1262     0.2348    -1.3462 H       
 112 H112           1.4923     2.3273     0.5897 H       
 113 H113           0.4607     3.8083    -1.1110 H       
 114 H114           3.3633     3.1690    -1.7963 H       
 115 H115           2.5315     4.7273    -2.0153 H       
 116 H116           2.8538     4.1131    -0.3761 H       
 117 H117           0.1363     2.1413    -2.7907 H       
 118 H118          -0.9154     2.4537     0.9349 H       
 119 H119          -2.4096     0.4179    -0.6258 H       
 120 H120          -2.6446     1.0188     2.3572 H       
 121 H121          -3.7189    -0.0683     1.4448 H       
 122 H122          -1.1824    -2.3307     2.7887 H       
 123 H123          -4.9970     0.9332    -0.0758 H       
 124 H124          -5.4323     3.8040     0.2348 H       
 125 H125          -6.0133     2.3420    -2.3794 H       
 126 H126          -6.6155     3.9676    -1.9755 H       
 127 H127          -4.2828     4.7660    -1.7109 H       
 128 H128          -3.6807     3.1404    -2.1147 H       
 129 H129          -4.7765     3.2859    -4.3343 H       
 130 H130          -5.3787     4.9115    -3.9305 H       
 131 H131          -2.5759     4.8889    -3.5832 H       
 132 H132          -4.0154     5.2777    -7.2945 H       
 133 H133          -1.2273     5.8180    -5.3119 H       
 134 H134          -1.8450     5.9754    -6.8663 H       
 135 H135          -8.0539     4.1250    -0.3011 H       
 136 H136          -9.5431     1.6989     0.3501 H       
 137 H137          -9.3806     4.0723     2.2604 H       
 138 H138         -10.5671     2.7517     2.3885 H       
 139 H139          -7.5403     2.3674     2.3971 H       
 140 H140          -9.5612     2.3050     4.6839 H       
 141 H141          -7.8329     1.8997     4.8146 H       
 142 H142          -8.3296     3.5630     4.4210 H       
 143 H143          -8.8447     0.4391     1.5434 H       
 144 H144          -8.1337     0.0754     3.1341 H       
 145 H145          -9.8620     0.4808     3.0034 H       
 146 H146         -12.0587     2.5726     0.7637 H       
 147 H147         -12.5755     4.9949    -0.7833 H       
 148 H148         -13.4222     2.2297    -1.7557 H       
 149 H149         -14.0381     3.7645    -2.4140 H       
 150 H150         -11.7278     4.4322    -3.0187 H       
 151 H151         -11.1120     2.8973    -2.3604 H       
 152 H152         -12.4884     1.6429    -3.9976 H       
 153 H153         -13.1042     3.1777    -4.6559 H       
 154 H154         -10.2818     3.2455    -4.7319 H       
 155 H155         -12.2004     1.2404    -7.6121 H       
 156 H156          -9.2075     2.7866    -6.8069 H       
 157 H157         -10.0255     1.9433    -8.0079 H       
 158 H158         -15.2556     5.0265    -1.0641 H       
 159 H159         -16.5419     3.6547     1.1700 H       
 160 H160         -16.2397     6.6894     1.0785 H       
 161 H161         -17.3413     5.8162     2.1705 H       
 162 H162         -15.4130     4.5942     3.1385 H       
 163 H163         -14.3114     5.4674     2.0465 H       
 164 H164         -15.0217     7.6201     3.0514 H       
 165 H165         -16.1232     6.7470     4.1434 H       
 166 H166         -14.1949     5.5250     5.1115 H       
 167 H167         -13.0934     6.3982     4.0194 H       
 168 H168         -13.2152     7.4434     6.1831 H       
 169 H169         -13.8831     8.4553     5.0447 H       
 170 H170         -19.0195     4.7125     1.2418 H       
 171 H171         -19.8354     5.6066    -1.4158 H       
 172 H172         -20.6782     2.9047    -0.2764 H       
 173 H173         -21.4397     3.6912    -1.6799 H       
 174 H174         -20.1076     3.6402    -3.9600 H       
 175 H175         -17.9941     2.4549    -4.7448 H       
 176 H176         -15.8025     1.0155    -3.5686 H       
 177 H177         -14.9718     0.2869    -1.3772 H       
 178 H178         -16.2197     0.8199     0.6725 H       
 179 H179         -18.3087     2.0836     0.5580 H       
 180 H180         -22.5282     5.5823    -1.3107 H       
 181 H181         -23.4566     6.0217     1.4229 H       
 182 H182         -23.3906     8.2847    -0.6244 H       
 183 H183         -24.1682     8.3545     0.9753 H       
 184 H184         -22.4001     8.1910     0.8515 H       
 185 H185         -25.9484     7.0002     1.1130 H       
 186 H186         -27.1362     6.0263    -1.3706 H       
 187 H187         -27.7075     4.7235     1.3285 H       
 188 H188         -28.6760     4.4664    -0.1426 H       
 189 H189         -25.4460     3.8559     1.4945 H       
 190 H190         -23.8476     2.1407     0.7418 H       
 191 H191         -24.2091     0.9748    -1.3966 H       
 192 H192         -26.1694     1.5234    -2.7820 H       
 193 H193         -27.7723     3.2326    -2.0253 H       
 194 H194         -29.7897     6.2065    -0.9357 H       
 195 H195         -30.0997     8.9532     0.0064 H       
 196 H196         -31.2204     8.1202    -2.0823 H       
 197 H197         -33.1646     8.8962     0.1374 H       
 198 H198         -32.1190    10.0417    -0.7361 H       
 199 H199         -34.2223     8.2290    -2.0039 H       
 200 H200         -34.3918     9.9788    -1.7256 H       
 201 H201         -33.1767     9.3745    -2.8773 H       
 202 H202         -32.8416     6.4720    -0.0892 H       
 203 H203         -33.1821     6.6247    -1.8296 H       
 204 H204         -31.6914     5.8211    -1.2816 H       
 205 H205         -32.4684     8.1658     2.6932 H       
 206 H206          22.7318    -2.9860     0.7668 H       
 207 H207          21.5446    -4.3119     0.7430 H       
 208 H208          21.8445    -3.3593    -0.7304 H       
 209 H209          20.6106    -2.3009     1.8530 H       
 210 H210          20.9106    -1.3483     0.3796 H       
 211 H211          19.4045    -2.8486    -0.8970 H       
 212 H212          19.1045    -3.8012     0.5764 H       
 213 H213          18.1706    -1.7901     1.6864 H       
 214 H214          18.4705    -0.8375     0.2130 H       
 215 H215          16.9645    -2.3378    -1.0635 H       
 216 H216          16.6645    -3.2904     0.4098 H       
 217 H217          15.7305    -1.2794     1.5199 H       
 218 H218          16.0305    -0.3268     0.0465 H       
 219 H219          14.5244    -1.8270    -1.2301 H       
 220 H220          14.2245    -2.7796     0.2433 H       
 221 H221          13.2905    -0.7686     1.3533 H       
 222 H222          13.5905     0.1840    -0.1201 H       
 223 H223          12.0844    -1.3162    -1.3966 H       
 224 H224          11.7844    -2.2688     0.0767 H       
 225 H225          10.8505    -0.2578     1.1868 H       
 226 H226          11.1504     0.6948    -0.2866 H       
 227 H227           9.6444    -0.8055    -1.5632 H       
 228 H228           9.3444    -1.7580    -0.0898 H       
 229 H229           8.4104     0.2530     1.0202 H       
 230 H230           8.7104     1.2056    -0.4532 H       
 231 H231           7.2043    -0.2947    -1.7298 H       
 232 H232           6.9044    -1.2473    -0.2564 H       
 233 H233           5.9704     0.7638     0.8536 H       
 234 H234           6.2704     1.7163    -0.6197 H       
 235 H235           4.4643    -0.7365    -0.4229 H       
 236 H236           4.7643     0.2161    -1.8963 H       
@<TRIPOS>BOND
   1    1    2 2
   2    1    4 1
   3    1   10 am
   4    3   94 am
   5    3    4 1
   6    3  111 1
   7    4    5 1
   8    4  112 1
   9    5    6 1
  10    5    7 1
  11    5  113 1
  12    6  114 1
  13    6  115 1
  14    6  116 1
  15    7  117 1
  16    8    9 2
  17    8   11 1
  18    8   18 am
  19   10   11 1
  20   10  118 1
  21   11   12 1
  22   11  119 1
  23   12   13 1
  24   12  120 1
  25   12  121 1
  26   13   14 2
  27   13   15 1
  28   15  122 1
  29   16   17 2
  30   16   19 1
  31   16   29 am
  32   18   19 1
  33   18  123 1
  34   19   20 1
  35   19  124 1
  36   20   21 1
  37   20  125 1
  38   20  126 1
  39   21   22 1
  40   21  127 1
  41   21  128 1
  42   22   23 1
  43   22  129 1
  44   22  130 1
  45   23   24 1
  46   23  131 1
  47   24   25 2
  48   24   26 1
  49   25  132 1
  50   26  133 1
  51   26  134 1
  52   27   28 2
  53   27   30 1
  54   27   37 am
  55   29   30 1
  56   29  135 1
  57   30   31 1
  58   30  136 1
  59   31   32 1
  60   31  137 1
  61   31  138 1
  62   32   33 1
  63   32   34 1
  64   32  139 1
  65   33  140 1
  66   33  141 1
  67   33  142 1
  68   34  143 1
  69   34  144 1
  70   34  145 1
  71   35   36 2
  72   35   38 1
  73   35   48 am
  74   37   38 1
  75   37  146 1
  76   38   39 1
  77   38  147 1
  78   39   40 1
  79   39  148 1
  80   39  149 1
  81   40   41 1
  82   40  150 1
  83   40  151 1
  84   41   42 1
  85   41  152 1
  86   41  153 1
  87   42   43 1
  88   42  154 1
  89   43   44 2
  90   43   45 1
  91   44  155 1
  92   45  156 1
  93   45  157 1
  94   46   47 2
  95   46   49 1
  96   46   57 am
  97   48   49 1
  98   48  158 1
  99   49   50 1
 100   49  159 1
 101   50   51 1
 102   50  160 1
 103   50  161 1
 104   51   52 1
 105   51  162 1
 106   51  163 1
 107   52   53 1
 108   52  164 1
 109   52  165 1
 110   53   54 1
 111   53  166 1
 112   53  167 1
 113   54  168 1
 114   54  169 1
 115   55   56 2
 116   55   58 1
 117   55   71 am
 118   57   58 1
 119   57  170 1
 120   58   59 1
 121   58  171 1
 122   59   60 1
 123   59  172 1
 124   59  173 1
 125   60   61 2
 126   60   68 1
 127   61   62 1
 128   61  174 1
 129   62   63 1
 130   62  175 1
 131   63   64 ar
 132   63   68 ar
 133   64   65 ar
 134   64  176 1
 135   65   66 ar
 136   65  177 1
 137   66   67 ar
 138   66  178 1
 139   67   68 ar
 140   67  179 1
 141   69   70 2
 142   69   72 1
 143   69   76 am
 144   71   72 1
 145   71  180 1
 146   72   73 1
 147   72  181 1
 148   73  182 1
 149   73  183 1
 150   73  184 1
 151   74   75 2
 152   74   77 1
 153   74   87 am
 154   76   77 1
 155   76  185 1
 156   77   78 1
 157   77  186 1
 158   78   79 1
 159   78  187 1
 160   78  188 1
 161   79   80 ar
 162   79   84 ar
 163   80   81 ar
 164   80  189 1
 165   81   82 ar
 166   81  190 1
 167   82   83 ar
 168   82  191 1
 169   83   84 ar
 170   83  192 1
 171   84  193 1
 172   85   86 2
 173   85   88 1
 174   85   93 1
 175   87   88 1
 176   87  194 1
 177   88   89 1
 178   88  195 1
 179   89   90 1
 180   89   92 1
 181   89  196 1
 182   90   91 1
 183   90  197 1
 184   90  198 1
 185   91  199 1
 186   91  200 1
 187   91  201 1
 188   92  202 1
 189   92  203 1
 190   92  204 1
 191   93  205 1
 192   94   95 2
 193   94  110 1
 194   96   97 1
 195   96  206 1
 196   96  207 1
 197   96  208 1
 198   97   98 1
 199   97  209 1
 200   97  210 1
 201   98   99 1
 202   98  211 1
 203   98  212 1
 204   99  100 1
 205   99  213 1
 206   99  214 1
 207  100  101 1
 208  100  215 1
 209  100  216 1
 210  101  102 1
 211  101  217 1
 212  101  218 1
 213  102  103 1
 214  102  219 1
 215  102  220 1
 216  103  104 1
 217  103  221 1
 218  103  222 1
 219  104  105 1
 220  104  223 1
 221  104  224 1
 222  105  106 1
 223  105  225 1
 224  105  226 1
 225  106  107 1
 226  106  227 1
 227  106  228 1
 228  107  108 1
 229  107  229 1
 230  107  230 1
 231  108  109 1
 232  108  231 1
 233  108  232 1
 234  109  110 1
 235  109  233 1
 236  109  234 1
 237  110  235 1
 238  110  236 1

#	End of record

