#	Name: ASD03091031
#	Creating user name:	WinNT
#	Creation time:	15. 06. 2019 20:29

#	Modifying user name:	WinNT
#	Modification time:	15. 06. 2019 20:29

#	Program:	/corina/corina34_cracker 3.40 0067  02.08.2006

@<TRIPOS>MOLECULE
ASD03091031
  49   53    0    0    0
SMALL
NO_CHARGES


@<TRIPOS>ATOM
   1 N1             0.0208     1.3823     0.0753 N.am    
   2 C2             0.0185    -0.0048     0.0307 C.2     
   3 N3             0.9434    -0.6996    -0.5596 N.2     
   4 C4             2.0595    -0.2320    -1.1764 C.ar    
   5 C5             2.4823     1.0918    -1.0002 C.ar    
   6 S6             1.5193     2.1221     0.0686 S.o2    
   7 O7             1.3623     3.3714    -0.5902 O.2     
   8 C8             2.8104    -1.0727    -2.0068 C.ar    
   9 C9             3.9379    -0.5924    -2.6356 C.ar    
  10 C10            4.3408     0.7258    -2.4551 C.ar    
  11 C11            3.6021     1.5696    -1.6295 C.ar    
  12 N12            5.4852     1.2034    -3.1012 N.3     
  13 C13            6.6686     1.0755    -2.2392 C.3     
  14 C14            5.3051     2.5956    -3.5295 C.3     
  15 C15            6.4479     3.0847    -4.4056 C.3     
  16 N16            7.7166     3.0679    -3.6616 N.3     
  17 C17            7.6388     3.4001    -2.2552 C.3     
  18 C18            6.8593     2.3647    -1.4612 C.3     
  19 C19            7.8847     0.6783    -3.0627 C.3     
  20 C20            8.4302     1.8076    -3.9132 C.3     
  21 C21           -1.0834    -0.7220     0.6833 C.2     
  22 O22            2.0574     1.9814     1.3762 O.2     
  23 C23           -1.2395    -2.0768     0.7341 C.2     
  24 O24           -2.1156    -0.1576     1.3425 O.3     
  25 C25           -2.9270    -1.1195     1.8063 C.2     
  26 C26           -2.4227    -2.3206     1.4523 C.2     
  27 C27           -4.1912    -0.8963     2.5956 C.3     
  28 H28           -0.8024     1.8945     0.1046 H       
  29 H29            2.5058    -2.0983    -2.1541 H       
  30 H30            4.5140    -1.2456    -3.2742 H       
  31 H31            3.9100     2.5948    -1.4859 H       
  32 H32            6.4754     0.2826    -1.5167 H       
  33 H33            4.3727     2.6752    -4.0886 H       
  34 H34            5.2403     3.2312    -2.6464 H       
  35 H35            6.5345     2.4368    -5.2778 H       
  36 H36            6.2380     4.1025    -4.7345 H       
  37 H37            8.6490     3.4679    -1.8516 H       
  38 H38            7.1511     4.3689    -2.1472 H       
  39 H39            5.8812     2.7743    -1.2091 H       
  40 H40            7.3982     2.1458    -0.5394 H       
  41 H41            8.6694     0.3399    -2.3862 H       
  42 H42            7.6091    -0.1495    -3.7160 H       
  43 H43            8.3252     1.5433    -4.9655 H       
  44 H44            9.4872     1.9457    -3.6860 H       
  45 H45           -0.5814    -2.8180     0.3052 H       
  46 H46           -2.8483    -3.2871     1.6785 H       
  47 H47           -4.3491     0.1733     2.7340 H       
  48 H48           -5.0369    -1.3214     2.0550 H       
  49 H49           -4.1021    -1.3794     3.5686 H       
@<TRIPOS>BOND
   1    1    2 1
   2    1    6 am
   3    1   28 1
   4    2    3 2
   5    2   21 1
   6    3    4 1
   7    4    5 ar
   8    4    8 ar
   9    5    6 1
  10    5   11 ar
  11    6    7 2
  12    6   22 2
  13    8    9 ar
  14    8   29 1
  15    9   10 ar
  16    9   30 1
  17   10   11 ar
  18   10   12 1
  19   11   31 1
  20   12   14 1
  21   12   13 1
  22   13   19 1
  23   13   18 1
  24   13   32 1
  25   14   15 1
  26   14   33 1
  27   14   34 1
  28   15   16 1
  29   15   35 1
  30   15   36 1
  31   16   17 1
  32   16   20 1
  33   17   18 1
  34   17   37 1
  35   17   38 1
  36   18   39 1
  37   18   40 1
  38   19   20 1
  39   19   41 1
  40   19   42 1
  41   20   43 1
  42   20   44 1
  43   21   23 2
  44   21   24 1
  45   23   26 1
  46   23   45 1
  47   24   25 1
  48   25   26 2
  49   25   27 1
  50   26   46 1
  51   27   47 1
  52   27   48 1
  53   27   49 1

#	End of record

