#	Name: ASD01948070
#	Creating user name:	WinNT
#	Creation time:	15. 06. 2019 20:13

#	Modifying user name:	WinNT
#	Modification time:	15. 06. 2019 20:13

#	Program:	/corina/corina34_cracker 3.40 0067  02.08.2006

@<TRIPOS>MOLECULE
ASD01948070
  52   54    0    0    0
SMALL
NO_CHARGES


@<TRIPOS>ATOM
   1 C1             0.4020     1.6557    -0.1291 C.3     
   2 C2             0.1663     0.1364    -0.0963 C.3     
   3 C3             1.5016     0.0248     0.6584 C.3     
   4 C4             1.9042     1.3458    -0.0183 C.3     
   5 S5            -0.0661     2.4297    -1.7015 S.o2    
   6 O6             0.1778     3.8290    -1.6605 O.2     
   7 O7             0.3767     1.6406    -2.7971 O.2     
   8 Cl8           -2.0795     2.2766    -1.7589 Cl      
   9 C9             0.5826    -1.0759     2.7044 C.3     
  10 C10            1.3578     0.1335     2.1778 C.3     
  11 C11            2.7459     0.1687     2.8202 C.3     
  12 O12            3.4265     1.3594     2.4188 O.3     
  13 C13            4.7398     1.4910     2.9666 C.3     
  14 C14            5.3608     2.7749     2.4797 C.ar    
  15 C15            5.1931     3.9413     3.2025 C.ar    
  16 C16            5.7627     5.1190     2.7559 C.ar    
  17 C17            6.5003     5.1302     1.5868 C.ar    
  18 C18            6.6688     3.9637     0.8646 C.ar    
  19 C19            6.1028     2.7851     1.3135 C.ar    
  20 O20           -0.7625    -1.0252     2.2248 O.3     
  21 C21           -1.5767    -2.1155     2.6613 C.3     
  22 C22           -2.9665    -1.9609     2.0994 C.ar    
  23 C23           -3.2825    -2.5174     0.8741 C.ar    
  24 C24           -4.5573    -2.3757     0.3588 C.ar    
  25 C25           -5.5162    -1.6777     1.0689 C.ar    
  26 C26           -5.2005    -1.1220     2.2946 C.ar    
  27 C27           -3.9269    -1.2675     2.8119 C.ar    
  28 H28           -0.0011     2.1789     0.7380 H       
  29 H29           -0.6977    -0.1587     0.4991 H       
  30 H30            0.1815    -0.3293    -1.0817 H       
  31 H31            2.1080    -0.8266     0.3494 H       
  32 H32            2.3945     1.2108    -0.9824 H       
  33 H33            2.4431     2.0271     0.6401 H       
  34 H34            1.0585    -1.9924     2.3557 H       
  35 H35            0.5806    -1.0596     3.7943 H       
  36 H36            0.8187     1.0474     2.4273 H       
  37 H37            2.6445     0.1565     3.9054 H       
  38 H38            3.3172    -0.7022     2.4989 H       
  39 H39            4.6797     1.5062     4.0548 H       
  40 H40            5.3524     0.6475     2.6483 H       
  41 H41            4.6168     3.9325     4.1158 H       
  42 H42            5.6312     6.0304     3.3202 H       
  43 H43            6.9448     6.0505     1.2376 H       
  44 H44            7.2448     3.9725    -0.0489 H       
  45 H45            6.2374     1.8729     0.7511 H       
  46 H46           -1.1457    -3.0536     2.3116 H       
  47 H47           -1.6235    -2.1207     3.7502 H       
  48 H48           -2.5333    -3.0627     0.3193 H       
  49 H49           -4.8040    -2.8098    -0.5989 H       
  50 H50           -6.5120    -1.5663     0.6659 H       
  51 H51           -5.9496    -0.5764     2.8492 H       
  52 H52           -3.6812    -0.8365     3.7712 H       
@<TRIPOS>BOND
   1    1    2 1
   2    1    4 1
   3    1    5 1
   4    1   28 1
   5    2    3 1
   6    2   29 1
   7    2   30 1
   8    3    4 1
   9    3   10 1
  10    3   31 1
  11    4   32 1
  12    4   33 1
  13    5    6 2
  14    5    7 2
  15    5    8 1
  16    9   10 1
  17    9   20 1
  18    9   34 1
  19    9   35 1
  20   10   11 1
  21   10   36 1
  22   11   12 1
  23   11   37 1
  24   11   38 1
  25   12   13 1
  26   13   14 1
  27   13   39 1
  28   13   40 1
  29   14   15 ar
  30   14   19 ar
  31   15   16 ar
  32   15   41 1
  33   16   17 ar
  34   16   42 1
  35   17   18 ar
  36   17   43 1
  37   18   19 ar
  38   18   44 1
  39   19   45 1
  40   20   21 1
  41   21   22 1
  42   21   46 1
  43   21   47 1
  44   22   23 ar
  45   22   27 ar
  46   23   24 ar
  47   23   48 1
  48   24   25 ar
  49   24   49 1
  50   25   26 ar
  51   25   50 1
  52   26   27 ar
  53   26   51 1
  54   27   52 1

#	End of record

