#	Name: ASD01410050
#	Creating user name:	WinNT
#	Creation time:	15. 06. 2019 19:16

#	Modifying user name:	WinNT
#	Modification time:	15. 06. 2019 19:16

#	Program:	/corina/corina34_cracker 3.40 0067  02.08.2006

@<TRIPOS>MOLECULE
ASD01410050
  39   40    0    0    0
SMALL
NO_CHARGES


@<TRIPOS>ATOM
   1 C1             0.3935     1.1429    -0.0827 C.ar    
   2 C2             0.1441    -0.2093    -0.0335 C.ar    
   3 C3            -1.1772    -0.6756    -0.0006 C.ar    
   4 C4            -2.2400     0.2467    -0.0181 C.ar    
   5 C5            -1.9683     1.6070    -0.0679 C.ar    
   6 C6            -0.6596     2.0516    -0.0942 C.ar    
   7 N7            -3.5528    -0.2015     0.0136 N.pl3   
   8 C8            -4.6531     0.7606     0.1131 C.3     
   9 C9            -5.9665     0.0219     0.1291 C.2     
  10 N10           -7.1239     0.7069     0.2160 N.am    
  11 C11           -8.3397     0.0359     0.1110 C.ar    
  12 C12           -8.4154    -1.1670    -0.5774 C.ar    
  13 C13           -9.6217    -1.8306    -0.6803 C.ar    
  14 C14          -10.7639    -1.3035    -0.0999 C.ar    
  15 C15          -10.7083    -0.1104     0.5876 C.ar    
  16 C16           -9.4936     0.5697     0.7057 C.ar    
  17 C17           -9.4267     1.8459     1.4399 C.2     
  18 O18          -10.5154     2.3106     2.0839 O.3     
  19 O19           -8.3899     2.4791     1.4645 O.2     
  20 O20           -5.9820    -1.1890     0.0639 O.2     
  21 C21           -1.4502    -2.1140     0.0514 C.2     
  22 Cl22           2.0309     1.7181    -0.1235 Cl      
  23 C23           -0.3161    -3.1006    -0.0558 C.3     
  24 O24           -2.5894    -2.5110     0.1808 O.2     
  25 F25           -0.4020     3.3769    -0.1422 F       
  26 H26            0.9655    -0.9104    -0.0207 H       
  27 H27           -2.7802     2.3190    -0.0820 H       
  28 H28           -3.7420    -1.1519    -0.0300 H       
  29 H29           -4.5494     1.3374     1.0322 H       
  30 H30           -4.6254     1.4341    -0.7435 H       
  31 H31           -7.1101     1.6673     0.3516 H       
  32 H32           -7.5297    -1.5842    -1.0334 H       
  33 H33           -9.6754    -2.7662    -1.2171 H       
  34 H34          -11.7027    -1.8302    -0.1868 H       
  35 H35          -11.6017     0.2963     1.0380 H       
  36 H36          -10.4231     3.1520     2.5516 H       
  37 H37            0.6126    -2.5662    -0.2562 H       
  38 H38           -0.2237    -3.6512     0.8803 H       
  39 H39           -0.5168    -3.7979    -0.8692 H       
@<TRIPOS>BOND
   1    1    2 ar
   2    1   22 1
   3    1    6 ar
   4    2    3 ar
   5    2   26 1
   6    3    4 ar
   7    3   21 1
   8    4    5 ar
   9    4    7 1
  10    5    6 ar
  11    5   27 1
  12    6   25 1
  13    7    8 1
  14    7   28 1
  15    8    9 1
  16    8   29 1
  17    8   30 1
  18    9   10 am
  19    9   20 2
  20   10   11 1
  21   10   31 1
  22   11   12 ar
  23   11   16 ar
  24   12   13 ar
  25   12   32 1
  26   13   14 ar
  27   13   33 1
  28   14   15 ar
  29   14   34 1
  30   15   16 ar
  31   15   35 1
  32   16   17 1
  33   17   18 1
  34   17   19 2
  35   18   36 1
  36   21   23 1
  37   21   24 2
  38   23   37 1
  39   23   38 1
  40   23   39 1

#	End of record

