#	Name: ASD09740358
#	Creating user name:	WinNT
#	Creation time:	15. 06. 2019 21:23

#	Modifying user name:	WinNT
#	Modification time:	15. 06. 2019 21:23

#	Program:	/corina/corina34_cracker 3.40 0067  02.08.2006

@<TRIPOS>MOLECULE
ASD09740358
  67   70    0    0    0
SMALL
NO_CHARGES


@<TRIPOS>ATOM
   1 O1            -0.5067     0.1316     1.3025 O.3     
   2 O2            -0.6569     2.8613     1.6164 O.3     
   3 N3             5.7621    -1.1180     0.7060 N.2     
   4 O4             4.5709    -0.9188     0.8152 O.3     
   5 C5             6.4210     0.0098     0.7828 C.2     
   6 N6             5.5154     0.9945     0.9581 N.2     
   7 C7             4.3398     0.3935     0.9775 C.2     
   8 C8             3.0231     1.0409     1.1456 C.ar    
   9 C9             7.8936     0.1754     0.6941 C.ar    
  10 C10            8.7096    -0.9345     0.5117 C.ar    
  11 C11           10.0868    -0.7867     0.4222 C.ar    
  12 C12           10.6416     0.4885     0.5264 C.ar    
  13 C13            9.8315     1.5908     0.7104 C.ar    
  14 C14            8.4609     1.4454     0.7879 C.ar    
  15 C15            1.8584     0.2693     1.1453 C.ar    
  16 C16            0.6290     0.8797     1.3028 C.ar    
  17 C17            0.5528     2.2625     1.4616 C.ar    
  18 C18            1.7094     3.0286     1.4615 C.ar    
  19 C19            2.9400     2.4248     1.3105 C.ar    
  20 C20           -0.6623     4.2816     1.7742 C.3     
  21 C21           -2.1029     4.7715     1.9339 C.3     
  22 C22           -0.3541    -1.2793     1.1345 C.3     
  23 C23           -1.7301    -1.9478     1.1605 C.3     
  24 N24           10.7113    -2.0247     0.2232 N.3     
  25 C25            9.7586    -3.0828     0.6237 C.3     
  26 C26            8.3873    -2.4099     0.3846 C.3     
  27 C27           11.9564    -2.1168     0.9974 C.3     
  28 C28           12.4775    -3.5547     0.9561 C.3     
  29 N29           13.7225    -3.6468     1.7303 N.3     
  30 C30           14.1263    -5.0473     1.9132 C.3     
  31 C31           14.7950    -2.8680     1.0970 C.3     
  32 C32           15.9320    -2.6571     2.0989 C.3     
  33 C33           13.2420    -5.6981     2.9787 C.3     
  34 H34           11.7123     0.6144     0.4630 H       
  35 H35           10.2724     2.5735     0.7901 H       
  36 H36            7.8311     2.3112     0.9298 H       
  37 H37            1.9189    -0.8019     1.0219 H       
  38 H38            1.6463     4.0997     1.5845 H       
  39 H39            3.8388     3.0235     1.3107 H       
  40 H40           -0.0867     4.5509     2.6598 H       
  41 H41           -0.2157     4.7465     0.8953 H       
  42 H42           -2.6785     4.5022     1.0483 H       
  43 H43           -2.5495     4.3066     2.8128 H       
  44 H44           -2.1070     5.8549     2.0542 H       
  45 H45            0.1299    -1.4812     0.1789 H       
  46 H46            0.2586    -1.6773     1.9434 H       
  47 H47           -2.2141    -1.7459     2.1161 H       
  48 H48           -2.3428    -1.5497     0.3517 H       
  49 H49           -1.6137    -3.0239     1.0324 H       
  50 H50            9.8720    -3.9645    -0.0072 H       
  51 H51            9.8853    -3.3396     1.6754 H       
  52 H52            7.6696    -2.7153     1.1459 H       
  53 H53            8.0138    -2.6388    -0.6135 H       
  54 H54           12.7018    -1.4477     0.5676 H       
  55 H55           11.7634    -1.8298     2.0311 H       
  56 H56           11.7320    -4.2238     1.3858 H       
  57 H57           12.6704    -3.8417    -0.0776 H       
  58 H58           14.0144    -5.5837     0.9710 H       
  59 H59           15.1679    -5.0864     2.2320 H       
  60 H60           15.1718    -3.4080     0.2283 H       
  61 H61           14.4042    -1.9005     0.7820 H       
  62 H62           15.5365    -2.2010     3.0065 H       
  63 H63           16.3843    -3.6184     2.3428 H       
  64 H64           16.6850    -2.0018     1.6613 H       
  65 H65           13.4182    -5.2167     3.9407 H       
  66 H66           12.1942    -5.5829     2.7013 H       
  67 H67           13.4836    -6.7584     3.0534 H       
@<TRIPOS>BOND
   1    1   22 1
   2    1   16 1
   3    2   20 1
   4    2   17 1
   5    3    4 1
   6    3    5 2
   7    4    7 1
   8    5    6 1
   9    5    9 1
  10    6    7 2
  11    7    8 1
  12    8   15 ar
  13    8   19 ar
  14    9   10 ar
  15    9   14 ar
  16   10   11 ar
  17   10   26 1
  18   11   12 ar
  19   11   24 1
  20   12   13 ar
  21   12   34 1
  22   13   14 ar
  23   13   35 1
  24   14   36 1
  25   15   16 ar
  26   15   37 1
  27   16   17 ar
  28   17   18 ar
  29   18   19 ar
  30   18   38 1
  31   19   39 1
  32   20   21 1
  33   20   40 1
  34   20   41 1
  35   21   42 1
  36   21   43 1
  37   21   44 1
  38   22   23 1
  39   22   45 1
  40   22   46 1
  41   23   47 1
  42   23   48 1
  43   23   49 1
  44   24   25 1
  45   24   27 1
  46   25   26 1
  47   25   50 1
  48   25   51 1
  49   26   52 1
  50   26   53 1
  51   27   28 1
  52   27   54 1
  53   27   55 1
  54   28   29 1
  55   28   56 1
  56   28   57 1
  57   29   30 1
  58   29   31 1
  59   30   33 1
  60   30   58 1
  61   30   59 1
  62   31   32 1
  63   31   60 1
  64   31   61 1
  65   32   62 1
  66   32   63 1
  67   32   64 1
  68   33   65 1
  69   33   66 1
  70   33   67 1

#	End of record

