#	Name: ASD06600002
#	Creating user name:	WinNT
#	Creation time:	15. 06. 2019 21:06

#	Modifying user name:	WinNT
#	Modification time:	15. 06. 2019 21:06

#	Program:	/corina/corina34_cracker 3.40 0067  02.08.2006

@<TRIPOS>MOLECULE
ASD06600002
 219  219    0    0    0
SMALL
NO_CHARGES


@<TRIPOS>ATOM
   1 C1             1.1360     3.0997    -3.6803 C.2     
   2 O2             1.0868     1.8881    -3.7012 O.2     
   3 N3             3.5554     2.8728    -3.6913 N.3     
   4 C4             2.4448     3.8051    -3.9267 C.3     
   5 C5             2.4927     4.3004    -5.3735 C.3     
   6 C6             3.7645     5.1232    -5.5890 C.3     
   7 C7             3.8124     5.6185    -7.0359 C.3     
   8 N8             5.0301     6.4064    -7.2422 N.pl3   
   9 C9             5.2911     6.9584    -8.4736 C.2     
  10 N10            4.5177     6.6880    -9.4853 N.2     
  11 N11            6.3742     7.8002    -8.6377 N.am    
  12 C12           -2.3930     4.0473    -3.5736 C.2     
  13 O13           -2.1633     5.1638    -3.9879 O.2     
  14 N14            0.0191     3.8155    -3.4423 N.am    
  15 C15           -1.2543     3.1300    -3.2087 C.3     
  16 C16           -1.3628     2.7448    -1.7320 C.3     
  17 C17           -0.2979     1.7324    -1.3974 C.2     
  18 C18            0.6191     1.8430    -0.4174 C.2     
  19 N19            1.3847     0.7091    -0.4616 N.pl3   
  20 C20            0.9085    -0.0554    -1.4678 C.2     
  21 N21           -0.1009     0.5607    -2.0197 N.2     
  22 C22           -6.0065     4.1191    -3.0255 C.2     
  23 O23           -5.9648     3.1816    -2.2572 O.2     
  24 N24           -3.6665     3.6270    -3.4394 N.am    
  25 C25           -4.7733     4.5188    -3.7941 C.3     
  26 C26           -5.0516     4.4144    -5.2949 C.3     
  27 C27           -3.8441     4.9380    -6.0751 C.3     
  28 C28           -4.1224     4.8335    -7.5760 C.3     
  29 N29           -2.9661     5.3349    -8.3230 N.pl3   
  30 C30           -2.9855     5.3398    -9.6977 C.2     
  31 N31           -4.0326     4.8986   -10.3363 N.2     
  32 N32           -1.9005     5.8103   -10.3988 N.pl3   
  33 C33           -9.5816     4.8622    -3.1964 C.2     
  34 O34           -9.4663     5.4479    -4.2521 O.2     
  35 N35           -7.1556     4.8034    -3.1920 N.am    
  36 C36           -8.3544     4.4148    -2.4449 C.3     
  37 C37           -8.3320     5.0758    -1.0652 C.3     
  38 C38           -7.1552     4.5272    -0.2559 C.3     
  39 C39           -7.1332     5.1782     1.1030 C.2     
  40 O40           -7.9758     6.0000     1.3954 O.2     
  41 N41           -6.1771     4.8472     1.9934 N.am    
  42 C42          -13.1442     5.2223    -2.4606 C.2     
  43 O43          -13.1088     4.6849    -1.3739 O.2     
  44 N44          -10.8074     4.6113    -2.6953 N.am    
  45 C45          -12.0004     5.0462    -3.4259 C.3     
  46 C46          -12.3720     3.9912    -4.4699 C.3     
  47 C47          -11.1974     3.7868    -5.4287 C.3     
  48 O48          -12.6721     2.7574    -3.8143 O.3     
  49 C49          -16.5906     6.4174    -2.6994 C.2     
  50 O50          -16.5159     6.5628    -3.9012 O.2     
  51 N51          -14.2065     5.9769    -2.8049 N.am    
  52 C52          -15.3571     6.0766    -1.9036 C.3     
  53 C53          -15.0998     7.1725    -0.8673 C.3     
  54 C54          -13.9229     6.7671     0.0222 C.3     
  55 C55          -13.6656     7.8630     1.0584 C.3     
  56 N56          -12.5386     7.4748     1.9101 N.pl3   
  57 C57          -12.1212     8.3088     2.9203 C.2     
  58 N58          -11.1185     7.9634     3.6781 N.2     
  59 N59          -12.7615     9.5070     3.1313 N.pl3   
  60 C60          -19.9756     7.5805    -1.9564 C.2     
  61 O61          -19.7124     7.7753    -0.7886 O.2     
  62 N62          -17.7767     6.5608    -2.0758 N.am    
  63 C63          -18.9758     6.8921    -2.8495 C.3     
  64 C64          -19.5918     5.6087    -3.4102 C.3     
  65 O65          -20.0513     4.7905    -2.3324 O.3     
  66 C66          -23.5222     8.4475    -2.1381 C.2     
  67 O67          -23.6838     7.8077    -3.1557 O.2     
  68 N68          -21.1622     7.9799    -2.4554 N.am    
  69 C69          -22.1341     8.6491    -1.5872 C.3     
  70 C70          -21.8207    10.1456    -1.5295 C.3     
  71 O71          -22.0096    10.7221    -2.8233 O.3     
  72 C72          -26.8272     9.9018    -1.5677 C.2     
  73 O73          -26.5133    10.5651    -0.6021 O.2     
  74 N74          -24.5841     8.9781    -1.4999 N.am    
  75 C75          -25.9336     8.7820    -2.0354 C.3     
  76 C76          -26.4895     7.4453    -1.5403 C.3     
  77 C77          -25.5920     6.3070    -2.0300 C.3     
  78 O78          -26.5242     7.4436    -0.1118 O.3     
  79 C79          -29.6958    10.9412    -0.6970 C.2     
  80 O80          -29.6665     9.8187    -0.2508 O.2     
  81 N81          -27.9751    10.1661    -2.2226 N.am    
  82 C82          -28.7882    11.3225    -1.8380 C.3     
  83 C83          -29.6320    11.7725    -3.0324 C.3     
  84 C84          -28.7117    12.2770    -4.1457 C.3     
  85 C85          -29.5427    12.7203    -5.3221 C.2     
  86 O86          -30.7475    12.6408    -5.2749 O.2     
  87 O87          -28.9446    13.2034    -6.4223 O.3     
  88 O88          -30.5369    11.8486    -0.1764 O.3     
  89 C89            7.1018     8.1785    -7.5682 C.2     
  90 O90            6.8691     7.7026    -6.4775 O.2     
  91 C91           20.6835    18.1546     0.6297 C.3     
  92 C92           19.5638    17.1246     0.7917 C.3     
  93 C93           18.9008    16.8744    -0.5643 C.3     
  94 C94           17.7811    15.8444    -0.4022 C.3     
  95 C95           17.1181    15.5941    -1.7582 C.3     
  96 C96           15.9984    14.5641    -1.5961 C.3     
  97 C97           15.3355    14.3139    -2.9521 C.3     
  98 C98           14.2158    13.2839    -2.7900 C.3     
  99 C99           13.5528    13.0337    -4.1460 C.3     
 100 C100          12.4331    12.0037    -3.9840 C.3     
 101 C101          11.7701    11.7535    -5.3400 C.3     
 102 C102          10.6504    10.7235    -5.1779 C.3     
 103 C103           9.9874    10.4733    -6.5339 C.3     
 104 C104           8.8677     9.4433    -6.3718 C.3     
 105 C105           8.2047     9.1930    -7.7278 C.3     
 106 H106           3.5841     2.5811    -2.7258 H       
 107 H107           3.4959     2.0764    -4.3080 H       
 108 H108           2.5332     4.6541    -3.2489 H       
 109 H109           2.4938     3.4459    -6.0503 H       
 110 H110           1.6197     4.9216    -5.5740 H       
 111 H111           3.7634     5.9777    -4.9123 H       
 112 H112           4.6374     4.5021    -5.3886 H       
 113 H113           3.8134     4.7641    -7.7126 H       
 114 H114           2.9394     6.2397    -7.2363 H       
 115 H115           5.6522     6.5385    -6.5098 H       
 116 H116           4.6575     7.1337   -10.3354 H       
 117 H117           6.6110     8.1190    -9.5227 H       
 118 H118           0.0585     4.7846    -3.4256 H       
 119 H119          -1.3010     2.2309    -3.8232 H       
 120 H120          -1.2273     3.6324    -1.1141 H       
 121 H121          -2.3459     2.3149    -1.5399 H       
 122 H122           0.7295     2.6679     0.2709 H       
 123 H123           2.1300     0.4948     0.1210 H       
 124 H124           1.2962    -1.0189    -1.7640 H       
 125 H125          -3.8501     2.7341    -3.1081 H       
 126 H126          -4.5067     5.5458    -3.5446 H       
 127 H127          -5.2311     3.3724    -5.5595 H       
 128 H128          -5.9306     5.0091    -5.5437 H       
 129 H129          -3.6646     5.9800    -5.8105 H       
 130 H130          -2.9651     4.3433    -5.8263 H       
 131 H131          -4.3019     3.7915    -7.8406 H       
 132 H132          -5.0013     5.4282    -7.8248 H       
 133 H133          -2.1869     5.6633    -7.8478 H       
 134 H134          -4.0463     4.9021   -11.3062 H       
 135 H135          -1.1213     6.1387    -9.9235 H       
 136 H136          -1.9142     5.8138   -11.3687 H       
 137 H137          -7.1889     5.5532    -3.8065 H       
 138 H138          -8.3745     3.3312    -2.3284 H       
 139 H139          -8.2224     6.1541    -1.1807 H       
 140 H140          -9.2642     4.8591    -0.5435 H       
 141 H141          -7.2648     3.4489    -0.1405 H       
 142 H142          -6.2230     4.7438    -0.7777 H       
 143 H143          -5.5032     4.1899     1.7596 H       
 144 H144          -6.1630     5.2662     2.8681 H       
 145 H145         -10.8996     4.1428    -1.8510 H       
 146 H146         -11.7961     5.9940    -3.9239 H       
 147 H147         -13.2446     4.3264    -5.0305 H       
 148 H148         -10.3647     3.3327    -4.8916 H       
 149 H149         -11.5040     3.1320    -6.2444 H       
 150 H150         -10.8867     4.7501    -5.8333 H       
 151 H151         -13.4084     2.8127    -3.1900 H       
 152 H152         -14.2092     6.4540    -3.6494 H       
 153 H153         -15.5044     5.1236    -1.3955 H       
 154 H154         -14.8650     8.1068    -1.3773 H       
 155 H155         -15.9899     7.3077    -0.2529 H       
 156 H156         -14.1577     5.8328     0.5321 H       
 157 H157         -13.0328     6.6319    -0.5923 H       
 158 H158         -13.4307     8.7973     0.5485 H       
 159 H159         -14.5557     7.9982     1.6728 H       
 160 H160         -12.0868     6.6294     1.7613 H       
 161 H161         -10.8241     8.5518     4.3909 H       
 162 H162         -13.5077     9.7640     2.5673 H       
 163 H163         -12.4671    10.0953     3.8440 H       
 164 H164         -17.8365     6.4445    -1.1146 H       
 165 H165         -18.7061     7.5549    -3.6716 H       
 166 H166         -20.4311     5.8614    -4.0580 H       
 167 H167         -18.8406     5.0657    -3.9838 H       
 168 H168         -20.4546     3.9582    -2.6147 H       
 169 H169         -21.3727     7.8241    -3.3894 H       
 170 H170         -22.0764     8.2269    -0.5840 H       
 171 H171         -22.4874    10.6291    -0.8154 H       
 172 H172         -20.7867    10.2885    -1.2155 H       
 173 H173         -21.8284    11.6712    -2.8613 H       
 174 H174         -24.4549     9.4898    -0.6860 H       
 175 H175         -25.8952     8.7785    -3.1247 H       
 176 H176         -27.4983     7.3053    -1.9285 H       
 177 H177         -24.6165     6.3810    -1.5495 H       
 178 H178         -26.0493     5.3500    -1.7786 H       
 179 H179         -25.4710     6.3790    -3.1109 H       
 180 H180         -27.0758     8.1406     0.2691 H       
 181 H181         -28.2629     9.5907    -2.9485 H       
 182 H182         -28.1356    12.1380    -1.5263 H       
 183 H183         -30.2193    10.9311    -3.3999 H       
 184 H184         -30.3013    12.5751    -2.7226 H       
 185 H185         -28.1243    13.1185    -3.7781 H       
 186 H186         -28.0424    11.4744    -4.4555 H       
 187 H187         -29.5193    13.4750    -7.1511 H       
 188 H188         -31.0994    11.5574     0.5542 H       
 189 H189          21.1558    18.3328     1.5957 H       
 190 H190          21.4258    17.7767    -0.0735 H       
 191 H191          20.2667    19.0879     0.2513 H       
 192 H192          19.9807    16.1912     1.1701 H       
 193 H193          18.8216    17.5024     1.4949 H       
 194 H194          18.4840    17.8077    -0.9426 H       
 195 H195          19.6431    16.4965    -1.2674 H       
 196 H196          18.1980    14.9110    -0.0238 H       
 197 H197          17.0389    16.2222     0.3009 H       
 198 H198          16.7013    16.5275    -2.1366 H       
 199 H199          17.8604    15.2163    -2.4613 H       
 200 H200          16.4153    13.6308    -1.2178 H       
 201 H201          15.2562    14.9420    -0.8930 H       
 202 H202          14.9186    15.2473    -3.3305 H       
 203 H203          16.0777    13.9361    -3.6553 H       
 204 H204          14.6326    12.3506    -2.4117 H       
 205 H205          13.4735    13.6618    -2.0869 H       
 206 H206          13.1359    13.9671    -4.5244 H       
 207 H207          14.2950    12.6559    -4.8492 H       
 208 H208          12.8499    11.0703    -3.6056 H       
 209 H209          11.6908    12.3815    -3.2808 H       
 210 H210          11.3532    12.6868    -5.7183 H       
 211 H211          12.5123    11.3756    -6.0431 H       
 212 H212          11.0672     9.7901    -4.7995 H       
 213 H213           9.9081    11.1013    -4.4748 H       
 214 H214           9.5705    11.4066    -6.9123 H       
 215 H215          10.7296    10.0954    -7.2370 H       
 216 H216           9.2846     8.5099    -5.9935 H       
 217 H217           8.1254     9.8211    -5.6687 H       
 218 H218           8.9469     8.8152    -8.4310 H       
 219 H219           7.7878    10.1264    -8.1062 H       
@<TRIPOS>BOND
   1    1    2 2
   2    1    4 1
   3    1   14 am
   4    3    4 1
   5    3  106 1
   6    3  107 1
   7    4    5 1
   8    4  108 1
   9    5    6 1
  10    5  109 1
  11    5  110 1
  12    6    7 1
  13    6  111 1
  14    6  112 1
  15    7    8 1
  16    7  113 1
  17    7  114 1
  18    8    9 1
  19    8  115 1
  20    9   10 2
  21    9   11 1
  22   10  116 1
  23   11   89 am
  24   11  117 1
  25   12   13 2
  26   12   15 1
  27   12   24 am
  28   14   15 1
  29   14  118 1
  30   15   16 1
  31   15  119 1
  32   16   17 1
  33   16  120 1
  34   16  121 1
  35   17   18 2
  36   17   21 1
  37   18   19 1
  38   18  122 1
  39   19   20 1
  40   19  123 1
  41   20   21 2
  42   20  124 1
  43   22   23 2
  44   22   25 1
  45   22   35 am
  46   24   25 1
  47   24  125 1
  48   25   26 1
  49   25  126 1
  50   26   27 1
  51   26  127 1
  52   26  128 1
  53   27   28 1
  54   27  129 1
  55   27  130 1
  56   28   29 1
  57   28  131 1
  58   28  132 1
  59   29   30 1
  60   29  133 1
  61   30   31 2
  62   30   32 1
  63   31  134 1
  64   32  135 1
  65   32  136 1
  66   33   34 2
  67   33   36 1
  68   33   44 am
  69   35   36 1
  70   35  137 1
  71   36   37 1
  72   36  138 1
  73   37   38 1
  74   37  139 1
  75   37  140 1
  76   38   39 1
  77   38  141 1
  78   38  142 1
  79   39   40 2
  80   39   41 am
  81   41  143 1
  82   41  144 1
  83   42   43 2
  84   42   45 1
  85   42   51 am
  86   44   45 1
  87   44  145 1
  88   45   46 1
  89   45  146 1
  90   46   47 1
  91   46   48 1
  92   46  147 1
  93   47  148 1
  94   47  149 1
  95   47  150 1
  96   48  151 1
  97   49   50 2
  98   49   52 1
  99   49   62 am
 100   51   52 1
 101   51  152 1
 102   52   53 1
 103   52  153 1
 104   53   54 1
 105   53  154 1
 106   53  155 1
 107   54   55 1
 108   54  156 1
 109   54  157 1
 110   55   56 1
 111   55  158 1
 112   55  159 1
 113   56   57 1
 114   56  160 1
 115   57   58 2
 116   57   59 1
 117   58  161 1
 118   59  162 1
 119   59  163 1
 120   60   61 2
 121   60   63 1
 122   60   68 am
 123   62   63 1
 124   62  164 1
 125   63   64 1
 126   63  165 1
 127   64   65 1
 128   64  166 1
 129   64  167 1
 130   65  168 1
 131   66   67 2
 132   66   69 1
 133   66   74 am
 134   68   69 1
 135   68  169 1
 136   69   70 1
 137   69  170 1
 138   70   71 1
 139   70  171 1
 140   70  172 1
 141   71  173 1
 142   72   73 2
 143   72   75 1
 144   72   81 am
 145   74   75 1
 146   74  174 1
 147   75   76 1
 148   75  175 1
 149   76   77 1
 150   76   78 1
 151   76  176 1
 152   77  177 1
 153   77  178 1
 154   77  179 1
 155   78  180 1
 156   79   80 2
 157   79   82 1
 158   79   88 1
 159   81   82 1
 160   81  181 1
 161   82   83 1
 162   82  182 1
 163   83   84 1
 164   83  183 1
 165   83  184 1
 166   84   85 1
 167   84  185 1
 168   84  186 1
 169   85   86 2
 170   85   87 1
 171   87  187 1
 172   88  188 1
 173   89   90 2
 174   89  105 1
 175   91   92 1
 176   91  189 1
 177   91  190 1
 178   91  191 1
 179   92   93 1
 180   92  192 1
 181   92  193 1
 182   93   94 1
 183   93  194 1
 184   93  195 1
 185   94   95 1
 186   94  196 1
 187   94  197 1
 188   95   96 1
 189   95  198 1
 190   95  199 1
 191   96   97 1
 192   96  200 1
 193   96  201 1
 194   97   98 1
 195   97  202 1
 196   97  203 1
 197   98   99 1
 198   98  204 1
 199   98  205 1
 200   99  100 1
 201   99  206 1
 202   99  207 1
 203  100  101 1
 204  100  208 1
 205  100  209 1
 206  101  102 1
 207  101  210 1
 208  101  211 1
 209  102  103 1
 210  102  212 1
 211  102  213 1
 212  103  104 1
 213  103  214 1
 214  103  215 1
 215  104  105 1
 216  104  216 1
 217  104  217 1
 218  105  218 1
 219  105  219 1

#	End of record

