#	Name: ASD01810471
#	Creating user name:	WinNT
#	Creation time:	15. 06. 2019 19:24

#	Modifying user name:	WinNT
#	Modification time:	15. 06. 2019 19:24

#	Program:	/corina/corina34_cracker 3.40 0067  02.08.2006

@<TRIPOS>MOLECULE
ASD01810471
  70   73    0    0    0
SMALL
NO_CHARGES


@<TRIPOS>ATOM
   1 C1             0.0073     1.4725    -0.5284 C.2     
   2 C2             0.0813    -0.0007    -0.5216 C.ar    
   3 C3             1.1679    -0.6617    -1.1153 C.ar    
   4 C4             1.1955    -2.0297    -1.0852 C.ar    
   5 C5             0.1527    -2.7214    -0.4709 C.ar    
   6 N6            -0.8625    -2.0725     0.0828 N.ar    
   7 C7            -0.9253    -0.7573     0.0805 C.ar    
   8 O8             0.8917     2.1233    -1.0510 O.2     
   9 N9            -1.0432     2.0972     0.0397 N.am    
  10 N10            0.1771    -4.1054    -0.4390 N.pl3   
  11 C11            1.2936    -4.8326    -1.0480 C.3     
  12 C12            2.4436    -4.9353    -0.0441 C.3     
  13 C13            0.8331    -6.2376    -1.4415 C.3     
  14 C14           -1.0604     3.4928     0.1327 C.ar    
  15 C15           -2.2628     4.1818     0.0248 C.ar    
  16 C16           -2.2851     5.5607     0.1161 C.ar    
  17 C17           -1.1135     6.2629     0.3148 C.ar    
  18 C18            0.0990     5.5804     0.4249 C.ar    
  19 C19            0.1209     4.1883     0.3381 C.ar    
  20 C20           -1.1435     7.7664     0.4126 C.3     
  21 C21           -3.5464     3.4228    -0.1928 C.3     
  22 C22            1.3555     6.3302     0.6379 C.2     
  23 O23            1.6781     7.2085    -0.1379 O.2     
  24 N24            2.1432     6.0396     1.6923 N.am    
  25 C25            3.3487     6.8333     1.9673 C.3     
  26 C26            3.2912     7.3317     3.4147 C.3     
  27 C27            3.0962     6.1389     4.3535 C.3     
  28 C28            1.7721     5.4435     4.0292 C.3     
  29 C29            1.8093     4.9271     2.5920 C.3     
  30 F30            4.1509     5.2354     4.1843 F       
  31 C31            3.0733     6.6219     5.7808 C.ar    
  32 C32            3.2204     5.7164     6.8166 C.ar    
  33 C33            3.2003     6.1516     8.1255 C.ar    
  34 C34            3.0316     7.5094     8.4038 C.ar    
  35 C35            2.8842     8.4178     7.3536 C.ar    
  36 C36            2.9110     7.9694     6.0493 C.ar    
  37 C37            3.0094     7.9683     9.7601 C.1     
  38 N38            2.9917     8.3323    10.8361 N.1     
  39 H39            1.9639    -0.1035    -1.5856 H       
  40 H40            2.0174    -2.5682    -1.5334 H       
  41 H41           -1.7643    -0.2601     0.5446 H       
  42 H42           -1.7873     1.5789     0.3840 H       
  43 H43           -0.5450    -4.5936    -0.0133 H       
  44 H44            1.6331    -4.2995    -1.9361 H       
  45 H45            2.1040    -5.4684     0.8440 H       
  46 H46            3.2743    -5.4763    -0.4972 H       
  47 H47            2.7716    -3.9344     0.2363 H       
  48 H48            0.0138    -6.1644    -2.1567 H       
  49 H49            1.6638    -6.7786    -1.8946 H       
  50 H50            0.4936    -6.7707    -0.5534 H       
  51 H51           -3.2223     6.0906     0.0312 H       
  52 H52            1.0556     3.6546     0.4266 H       
  53 H53           -1.3681     8.0594     1.4381 H       
  54 H54           -0.1724     8.1687     0.1242 H       
  55 H55           -1.9117     8.1586    -0.2539 H       
  56 H56           -3.9870     3.1701     0.7717 H       
  57 H57           -4.2426     4.0411    -0.7594 H       
  58 H58           -3.3380     2.5082    -0.7479 H       
  59 H59            4.2341     6.2126     1.8295 H       
  60 H60            3.3879     7.6853     1.2887 H       
  61 H61            4.2231     7.8405     3.6616 H       
  62 H62            2.4571     8.0241     3.5282 H       
  63 H63            1.6227     4.6082     4.7134 H       
  64 H64            0.9523     6.1537     4.1369 H       
  65 H65            0.8332     4.5219     2.3254 H       
  66 H66            2.5666     4.1478     2.5061 H       
  67 H67            3.3508     4.6664     6.5999 H       
  68 H68            3.3145     5.4436     8.9331 H       
  69 H69            2.7533     9.4694     7.5619 H       
  70 H70            2.8012     8.6714     5.2359 H       
@<TRIPOS>BOND
   1    1    2 1
   2    1    8 2
   3    1    9 am
   4    2    3 ar
   5    2    7 ar
   6    3    4 ar
   7    3   39 1
   8    4    5 ar
   9    4   40 1
  10    5    6 ar
  11    5   10 1
  12    6    7 ar
  13    7   41 1
  14    9   14 1
  15    9   42 1
  16   10   11 1
  17   10   43 1
  18   11   12 1
  19   11   13 1
  20   11   44 1
  21   12   45 1
  22   12   46 1
  23   12   47 1
  24   13   48 1
  25   13   49 1
  26   13   50 1
  27   14   15 ar
  28   14   19 ar
  29   15   16 ar
  30   15   21 1
  31   16   17 ar
  32   16   51 1
  33   17   18 ar
  34   17   20 1
  35   18   19 ar
  36   18   22 1
  37   19   52 1
  38   20   53 1
  39   20   54 1
  40   20   55 1
  41   21   56 1
  42   21   57 1
  43   21   58 1
  44   22   23 2
  45   22   24 am
  46   24   25 1
  47   24   29 1
  48   25   26 1
  49   25   59 1
  50   25   60 1
  51   26   27 1
  52   26   61 1
  53   26   62 1
  54   27   28 1
  55   27   30 1
  56   27   31 1
  57   28   29 1
  58   28   63 1
  59   28   64 1
  60   29   65 1
  61   29   66 1
  62   31   32 ar
  63   31   36 ar
  64   32   33 ar
  65   32   67 1
  66   33   34 ar
  67   33   68 1
  68   34   35 ar
  69   34   37 1
  70   35   36 ar
  71   35   69 1
  72   36   70 1
  73   37   38 3

#	End of record

