#	Name: ASD09740161
#	Creating user name:	WinNT
#	Creation time:	15. 06. 2019 21:22

#	Modifying user name:	WinNT
#	Modification time:	15. 06. 2019 21:22

#	Program:	/corina/corina34_cracker 3.40 0067  02.08.2006

@<TRIPOS>MOLECULE
ASD09740161
  33   35    0    0    0
SMALL
NO_CHARGES


@<TRIPOS>ATOM
   1 S1            -0.0172     1.4168     0.0098 S.o2    
   2 O2            -4.5886     3.0010    -6.3463 O.3     
   3 N3            -4.1216     2.3784    -5.4162 N.2     
   4 C4            -4.0208     4.2147    -6.4151 C.2     
   5 N5            -3.1483     4.2860    -5.4288 N.2     
   6 C6            -3.2232     3.0977    -4.7938 C.2     
   7 C7            -2.4323     2.6830    -3.6079 C.ar    
   8 C8            -4.3170     5.2715    -7.4080 C.ar    
   9 C9            -2.6149     1.4181    -3.0534 C.ar    
  10 C10           -1.5007     3.5552    -3.0491 C.ar    
  11 C11           -0.7677     3.1644    -1.9468 C.ar    
  12 C12           -0.9567     1.9094    -1.3970 C.ar    
  13 C13           -1.8765     1.0375    -1.9511 C.ar    
  14 O14            0.0021    -0.0041     0.0020 O.2     
  15 O15            1.1617     2.2101     0.0028 O.2     
  16 N16           -0.8748     1.8654     1.3536 N.am    
  17 C17           -3.6446     6.5001    -7.3729 C.ar    
  18 C18           -5.2696     5.0685    -8.4078 C.ar    
  19 C19           -5.5157     6.0888    -9.3193 C.ar    
  20 N20           -4.8589     7.2358    -9.2439 N.ar    
  21 C21           -3.9484     7.4595    -8.3151 C.ar    
  22 N22           -6.4614     5.9025   -10.3212 N.pl3   
  23 H23           -3.3331     0.7367    -3.4850 H       
  24 H24           -1.3521     4.5353    -3.4779 H       
  25 H25           -0.0451     3.8397    -1.5131 H       
  26 H26           -2.0205     0.0588    -1.5177 H       
  27 H27           -0.7362     2.7410     1.7474 H       
  28 H28           -1.5157     1.2527     1.7468 H       
  29 H29           -2.8979     6.6933    -6.6170 H       
  30 H30           -5.8065     4.1337    -8.4724 H       
  31 H31           -3.4367     8.4102    -8.2901 H       
  32 H32           -6.9454     5.0641   -10.3815 H       
  33 H33           -6.6372     6.6110   -10.9600 H       
@<TRIPOS>BOND
   1    1   14 2
   2    1   15 2
   3    1   16 am
   4    1   12 1
   5    2    3 1
   6    2    4 1
   7    3    6 2
   8    4    5 2
   9    4    8 1
  10    5    6 1
  11    6    7 1
  12    7    9 ar
  13    7   10 ar
  14    8   18 ar
  15    8   17 ar
  16    9   13 ar
  17    9   23 1
  18   10   11 ar
  19   10   24 1
  20   11   12 ar
  21   11   25 1
  22   12   13 ar
  23   13   26 1
  24   16   27 1
  25   16   28 1
  26   17   21 ar
  27   17   29 1
  28   18   19 ar
  29   18   30 1
  30   19   20 ar
  31   19   22 1
  32   20   21 ar
  33   21   31 1
  34   22   32 1
  35   22   33 1

#	End of record

