#	Name: ASD01882174
#	Creating user name:	WinNT
#	Creation time:	15. 06. 2019 19:44

#	Modifying user name:	WinNT
#	Modification time:	15. 06. 2019 19:44

#	Program:	/corina/corina34_cracker 3.40 0067  02.08.2006

@<TRIPOS>MOLECULE
ASD01882174
  50   53    0    0    0
SMALL
NO_CHARGES


@<TRIPOS>ATOM
   1 C1            -0.4070     0.7384    -1.1126 C.2     
   2 C2             0.0021    -0.0041     0.0020 C.2     
   3 C3            -0.8269    -0.0436     1.1386 C.2     
   4 C4            -1.9990     0.6181     1.1664 C.2     
   5 N5            -2.4375     1.3532     0.1042 N.pl3   
   6 C6            -1.6865     1.4486    -1.0386 C.2     
   7 C7            -3.5720     2.0989    -0.1027 C.2     
   8 C8            -3.4873     2.6148    -1.3454 C.2     
   9 N9            -2.3371     2.2111    -1.8983 N.2     
  10 N10            1.2030    -0.6889    -0.0141 N.pl3   
  11 C11           -4.7001     2.3019     0.8756 C.3     
  12 C12            1.2305    -2.1543     0.0880 C.3     
  13 C13            2.1618    -2.5511     1.2378 C.3     
  14 C14            3.5346    -1.9102     1.0215 C.3     
  15 C15            3.3932    -0.3864     1.0183 C.3     
  16 C16            2.4756     0.0345    -0.1397 C.3     
  17 C17            4.4635    -2.3260     2.1329 C.ar    
  18 C18            4.1509    -2.0225     3.4448 C.ar    
  19 C19            5.0030    -2.4038     4.4644 C.ar    
  20 C20           -5.8074     1.2838     0.5957 C.3     
  21 C21           -6.9527     1.4899     1.5890 C.3     
  22 C22            5.6254    -3.0157     1.8410 C.ar    
  23 C23            6.4775    -3.3970     2.8605 C.ar    
  24 C24            6.1674    -3.0890     4.1720 C.ar    
  25 C25            0.4055     0.8066    -2.2898 C.1     
  26 N26            1.0500     0.8606    -3.2237 N.1     
  27 H27           -0.5180    -0.6142     2.0020 H       
  28 H28           -2.6099     0.5652     2.0554 H       
  29 H29           -4.2232     3.2506    -1.8152 H       
  30 H30           -4.3292     2.1653     1.8914 H       
  31 H31           -5.0982     3.3108     0.7668 H       
  32 H32            0.2253    -2.5257     0.2872 H       
  33 H33            1.6008    -2.5787    -0.8452 H       
  34 H34            1.7426    -2.2033     2.1820 H       
  35 H35            2.2666    -3.6358     1.2634 H       
  36 H36            3.9423    -2.2391     0.0656 H       
  37 H37            2.9625    -0.0590     1.9645 H       
  38 H38            4.3745     0.0697     0.8875 H       
  39 H39            2.9498    -0.2117    -1.0897 H       
  40 H40            2.2912     1.1076    -0.0883 H       
  41 H41            3.2411    -1.4872     3.6732 H       
  42 H42            4.7591    -2.1661     5.4893 H       
  43 H43           -6.1783     1.4204    -0.4201 H       
  44 H44           -5.4093     0.2749     0.7045 H       
  45 H45           -7.7415     0.7646     1.3896 H       
  46 H46           -6.5818     1.3533     2.6048 H       
  47 H47           -7.3508     2.4988     1.4802 H       
  48 H48            5.8672    -3.2570     0.8165 H       
  49 H49            7.3850    -3.9362     2.6325 H       
  50 H50            6.8332    -3.3869     4.9685 H       
@<TRIPOS>BOND
   1    1    2 2
   2    1   25 1
   3    1    6 1
   4    2    3 1
   5    2   10 1
   6    3    4 2
   7    3   27 1
   8    4    5 1
   9    4   28 1
  10    5    6 1
  11    5    7 1
  12    6    9 2
  13    7    8 2
  14    7   11 1
  15    8    9 1
  16    8   29 1
  17   10   12 1
  18   10   16 1
  19   11   20 1
  20   11   30 1
  21   11   31 1
  22   12   13 1
  23   12   32 1
  24   12   33 1
  25   13   14 1
  26   13   34 1
  27   13   35 1
  28   14   15 1
  29   14   17 1
  30   14   36 1
  31   15   16 1
  32   15   37 1
  33   15   38 1
  34   16   39 1
  35   16   40 1
  36   17   22 ar
  37   17   18 ar
  38   18   19 ar
  39   18   41 1
  40   19   24 ar
  41   19   42 1
  42   20   21 1
  43   20   43 1
  44   20   44 1
  45   21   45 1
  46   21   46 1
  47   21   47 1
  48   22   23 ar
  49   22   48 1
  50   23   24 ar
  51   23   49 1
  52   24   50 1
  53   25   26 3

#	End of record

