#	Name: ASD00311225
#	Creating user name:	WinNT
#	Creation time:	15. 06. 2019 18:34

#	Modifying user name:	WinNT
#	Modification time:	15. 06. 2019 18:34

#	Program:	/corina/corina34_cracker 3.40 0067  02.08.2006

@<TRIPOS>MOLECULE
ASD00311225
  42   45    0    0    0
SMALL
NO_CHARGES


@<TRIPOS>ATOM
   1 C1            -0.0167     1.3778     0.0096 C.2     
   2 C2             0.0021    -0.0041     0.0020 C.2     
   3 C3             1.2589    -0.6767    -0.0131 C.2     
   4 C4             2.4316     0.0673    -0.0199 C.2     
   5 C5             2.3574     1.4753    -0.0117 C.2     
   6 N6             1.1648     2.0904     0.0022 N.am    
   7 C7            -1.3431    -0.5750     0.0118 C.2     
   8 C8            -2.3224     0.3257     0.0260 C.2     
   9 S9            -1.6794     1.9560     0.0358 S.3     
  10 O10            3.3822     2.1374    -0.0175 O.2     
  11 S11           -4.0396    -0.0688     0.0397 S.o2    
  12 O12           -4.6636     1.0617    -0.5534 O.2     
  13 O13           -4.1099    -1.3495    -0.5721 O.2     
  14 C14           -4.4644    -0.1801     1.7998 C.3     
  15 O15            1.3089    -2.0291    -0.0204 O.3     
  16 C16            3.7477    -0.6119    -0.0352 C.ar    
  17 C17            4.5939    -0.4744    -1.1354 C.ar    
  18 C18            5.8190    -1.1093    -1.1435 C.ar    
  19 C19            6.2086    -1.8808    -0.0633 C.ar    
  20 C20            5.3735    -2.0214     1.0307 C.ar    
  21 C21            4.1484    -1.3868     1.0531 C.ar    
  22 C22           -1.5955    -2.0355     0.0063 C.ar    
  23 C23           -2.2065    -2.6442     1.1019 C.ar    
  24 C24           -2.4393    -4.0043     1.0909 C.ar    
  25 C25           -2.0679    -4.7636    -0.0042 C.ar    
  26 C26           -1.4614    -4.1652    -1.0941 C.ar    
  27 C27           -1.2282    -2.8051    -1.0968 C.ar    
  28 H28            1.1326     3.0598     0.0073 H       
  29 H29           -4.2626     0.7757     2.2834 H       
  30 H30           -5.5217    -0.4237     1.9037 H       
  31 H31           -3.8641    -0.9590     2.2699 H       
  32 H32            2.2062    -2.3895    -0.0307 H       
  33 H33            4.2907     0.1274    -1.9794 H       
  34 H34            6.4749    -1.0039    -1.9950 H       
  35 H35            7.1684    -2.3758    -0.0742 H       
  36 H36            5.6829    -2.6253     1.8709 H       
  37 H37            3.4994    -1.4933     1.9097 H       
  38 H38           -2.4965    -2.0525     1.9576 H       
  39 H39           -2.9122    -4.4770     1.9391 H       
  40 H40           -2.2518    -5.8278    -0.0082 H       
  41 H41           -1.1733    -4.7631    -1.9461 H       
  42 H42           -0.7583    -2.3384    -1.9499 H       
@<TRIPOS>BOND
   1    1    2 2
   2    1    6 1
   3    1    9 1
   4    2    3 1
   5    2    7 1
   6    3    4 2
   7    3   15 1
   8    4    5 1
   9    4   16 1
  10    5    6 am
  11    5   10 2
  12    6   28 1
  13    7    8 2
  14    7   22 1
  15    8    9 1
  16    8   11 1
  17   11   12 2
  18   11   13 2
  19   11   14 1
  20   14   29 1
  21   14   30 1
  22   14   31 1
  23   15   32 1
  24   16   17 ar
  25   16   21 ar
  26   17   18 ar
  27   17   33 1
  28   18   19 ar
  29   18   34 1
  30   19   20 ar
  31   19   35 1
  32   20   21 ar
  33   20   36 1
  34   21   37 1
  35   22   23 ar
  36   22   27 ar
  37   23   24 ar
  38   23   38 1
  39   24   25 ar
  40   24   39 1
  41   25   26 ar
  42   25   40 1
  43   26   27 ar
  44   26   41 1
  45   27   42 1

#	End of record

