#	Name: ASD01900026
#	Creating user name:	WinNT
#	Creation time:	15. 06. 2019 19:51

#	Modifying user name:	WinNT
#	Modification time:	15. 06. 2019 19:51

#	Program:	/corina/corina34_cracker 3.40 0067  02.08.2006

@<TRIPOS>MOLECULE
ASD01900026
  41   42    0    0    0
SMALL
NO_CHARGES


@<TRIPOS>ATOM
   1 C1            -0.0187     1.5258     0.0104 C.3     
   2 C2             0.0021    -0.0041     0.0020 C.3     
   3 C3             0.7182    -0.4975    -1.2568 C.3     
   4 C4             2.1536     0.0321    -1.2676 C.3     
   5 C5             2.1328     1.5619    -1.2592 C.3     
   6 C6             1.4167     2.0553    -0.0004 C.3     
   7 C7             3.5467     2.0836    -1.2699 C.2     
   8 C8             2.8825    -0.4671    -0.0468 C.2     
   9 O9             3.7740     3.4064    -1.2650 O.3     
  10 N10            3.0256    -1.7915     0.1581 N.am    
  11 O11            4.4755     1.3110    -1.2829 O.2     
  12 O12            3.3403     0.3229     0.7515 O.2     
  13 C13            3.7341    -2.2768     1.3449 C.3     
  14 H14            1.6057     1.9230    -2.1423 H       
  15 H15            2.6638    -0.3194    -2.1644 H       
  16 C16            3.2511    -3.6880     1.6858 C.3     
  17 C17            3.9911    -4.1948     2.9253 C.3     
  18 C18            5.4949    -4.2244     2.6450 C.3     
  19 C19            5.9779    -2.8132     2.3041 C.3     
  20 C20            5.2380    -2.3064     1.0646 C.3     
  21 H21           -0.5459     1.8868    -0.8726 H       
  22 H22           -0.5289     1.8773     0.9072 H       
  23 H23            0.5293    -0.3651     0.8851 H       
  24 H24           -1.0205    -0.3814     0.0098 H       
  25 H25            0.7330    -1.5874    -1.2628 H       
  26 H26            0.1910    -0.1364    -2.1398 H       
  27 H27            1.4019     3.1452     0.0056 H       
  28 H28            1.9439     1.6943     0.8826 H       
  29 H29            4.6975     3.6932    -1.2723 H       
  30 H30            2.6595    -2.4234    -0.4804 H       
  31 H31            3.5341    -1.6115     2.1849 H       
  32 H32            2.1798    -3.6669     1.8855 H       
  33 H33            3.4511    -4.3533     0.8459 H       
  34 H34            3.7911    -3.5295     3.7653 H       
  35 H35            3.6469    -5.2001     3.1682 H       
  36 H36            6.0221    -4.5854     3.5281 H       
  37 H37            5.6949    -4.8896     1.8051 H       
  38 H38            5.7779    -2.1479     3.1441 H       
  39 H39            7.0493    -2.8342     2.1044 H       
  40 H40            5.4380    -2.9717     0.2247 H       
  41 H41            5.5821    -1.3010     0.8217 H       
@<TRIPOS>BOND
   1    1    2 1
   2    1    6 1
   3    1   21 1
   4    1   22 1
   5    2    3 1
   6    2   23 1
   7    2   24 1
   8    3    4 1
   9    3   25 1
  10    3   26 1
  11    4    5 1
  12    4    8 1
  13    4   15 1
  14    5    6 1
  15    5    7 1
  16    5   14 1
  17    6   27 1
  18    6   28 1
  19    7    9 1
  20    7   11 2
  21    8   10 am
  22    8   12 2
  23    9   29 1
  24   10   13 1
  25   10   30 1
  26   13   16 1
  27   13   20 1
  28   13   31 1
  29   16   17 1
  30   16   32 1
  31   16   33 1
  32   17   18 1
  33   17   34 1
  34   17   35 1
  35   18   19 1
  36   18   36 1
  37   18   37 1
  38   19   20 1
  39   19   38 1
  40   19   39 1
  41   20   40 1
  42   20   41 1

#	End of record

