#	Name: ASD00840092
#	Creating user name:	WinNT
#	Creation time:	15. 06. 2019 18:37

#	Modifying user name:	WinNT
#	Modification time:	15. 06. 2019 18:37

#	Program:	/corina/corina34_cracker 3.40 0067  02.08.2006

@<TRIPOS>MOLECULE
ASD00840092
  23   24    0    0    0
SMALL
NO_CHARGES


@<TRIPOS>ATOM
   1 C1            -0.0167     1.3785     0.0096 C.ar    
   2 C2             0.0021    -0.0041     0.0020 C.ar    
   3 N3             1.1415    -0.6685    -0.0120 N.ar    
   4 C4             2.3056    -0.0521    -0.0198 C.ar    
   5 C5             2.3712     1.3396    -0.0134 C.ar    
   6 C6             1.1816     2.0721     0.0019 C.ar    
   7 C7             3.6836     2.0327    -0.0217 C.2     
   8 N8             3.8740     3.3314     0.0764 N.2     
   9 N9             5.2527     3.5741     0.0274 N.pl3   
  10 C10            5.8841     2.3876    -0.1025 C.2     
  11 C11            4.9455     1.4165    -0.1297 C.2     
  12 C12            7.3743     2.1823    -0.1941 C.3     
  13 N13            7.9441     2.1204     1.1584 N.3     
  14 H14           -0.9559     1.9116     0.0170 H       
  15 H15           -0.9307    -0.5484     0.0080 H       
  16 H16            3.2175    -0.6308    -0.0309 H       
  17 H17            1.1964     3.1520     0.0069 H       
  18 H18            5.6797     4.4437     0.0778 H       
  19 H19            5.1295     0.3566    -0.2252 H       
  20 H20            7.5809     1.2493    -0.7185 H       
  21 H21            7.8226     3.0127    -0.7396 H       
  22 H22            7.4987     1.3993     1.7058 H       
  23 H23            8.9431     1.9831     1.1240 H       
@<TRIPOS>BOND
   1    1    2 ar
   2    1    6 ar
   3    1   14 1
   4    2    3 ar
   5    2   15 1
   6    3    4 ar
   7    4    5 ar
   8    4   16 1
   9    5    6 ar
  10    5    7 1
  11    6   17 1
  12    7    8 2
  13    7   11 1
  14    8    9 1
  15    9   10 1
  16    9   18 1
  17   10   11 2
  18   10   12 1
  19   11   19 1
  20   12   13 1
  21   12   20 1
  22   12   21 1
  23   13   22 1
  24   13   23 1

#	End of record

