#	Name: ASD02039181
#	Creating user name:	WinNT
#	Creation time:	15. 06. 2019 20:17

#	Modifying user name:	WinNT
#	Modification time:	15. 06. 2019 20:17

#	Program:	/corina/corina34_cracker 3.40 0067  02.08.2006

@<TRIPOS>MOLECULE
ASD02039181
  42   45    0    0    0
SMALL
NO_CHARGES


@<TRIPOS>ATOM
   1 N1            -0.0010     1.2806     0.2549 N.2     
   2 C2             0.0074    -0.0198     0.1287 C.2     
   3 N3             1.2988    -0.4140     0.1373 N.2     
   4 C4             2.0014     0.6841     0.2697 C.2     
   5 O5             1.1344     1.6992     0.3369 O.3     
   6 C6             3.5037     0.7838     0.3345 C.3     
   7 C7             4.0563     0.9542    -1.0572 C.ar    
   8 N8            -1.1049    -0.8433     0.0085 N.pl3   
   9 C9            -2.3915    -0.3042     0.1293 C.ar    
  10 C10           -3.4565    -0.8915    -0.5409 C.ar    
  11 C11           -4.7251    -0.3591    -0.4213 C.ar    
  12 C12           -4.9356     0.7621     0.3678 C.ar    
  13 C13           -3.8723     1.3493     1.0376 C.ar    
  14 C14           -2.6041     0.8145     0.9239 C.ar    
  15 C15            4.2242     2.2306    -1.5792 C.ar    
  16 C16            4.7232     2.4118    -2.8381 C.ar    
  17 C17            5.0695     1.3073    -3.6120 C.ar    
  18 C18            4.9000     0.0123    -3.0845 C.ar    
  19 C19            4.3923    -0.1469    -1.7906 C.ar    
  20 N20            5.5812     1.1552    -4.8742 N.pl3   
  21 N21            5.7341    -0.2086    -5.1443 N.2     
  22 C22            5.3460    -0.9138    -4.1204 C.2     
  23 O23           -6.1850     1.2863     0.4844 O.3     
  24 C24           -6.3292     2.4414     1.3132 C.3     
  25 F25           -5.5324     3.4768     0.8128 F       
  26 F26           -7.6685     2.8457     1.3208 F       
  27 F27           -5.9279     2.1327     2.6173 F       
  28 C28            5.3559    -2.4176    -4.0227 C.3     
  29 F29            4.1355    -2.9229    -4.4836 F       
  30 F30            6.3974    -2.9289    -4.8045 F       
  31 F31            5.5440    -2.7971    -2.6894 F       
  32 H32            3.7849     1.6420     0.9447 H       
  33 H33            3.9093    -0.1257     0.7776 H       
  34 H34           -0.9902    -1.7918    -0.1591 H       
  35 H35           -3.2927    -1.7640    -1.1559 H       
  36 H36           -5.5536    -0.8157    -0.9425 H       
  37 H37           -4.0370     2.2223     1.6518 H       
  38 H38           -1.7764     1.2716     1.4458 H       
  39 H39            3.9566     3.0903    -0.9826 H       
  40 H40            4.8485     3.4095    -3.2322 H       
  41 H41            4.2591    -1.1358    -1.3775 H       
  42 H42            5.8016     1.8776    -5.4829 H       
@<TRIPOS>BOND
   1    1    2 2
   2    1    5 1
   3    2    3 1
   4    2    8 1
   5    3    4 2
   6    4    5 1
   7    4    6 1
   8    6    7 1
   9    6   32 1
  10    6   33 1
  11    7   15 ar
  12    7   19 ar
  13    8    9 1
  14    8   34 1
  15    9   10 ar
  16    9   14 ar
  17   10   11 ar
  18   10   35 1
  19   11   12 ar
  20   11   36 1
  21   12   13 ar
  22   12   23 1
  23   13   14 ar
  24   13   37 1
  25   14   38 1
  26   15   16 ar
  27   15   39 1
  28   16   17 ar
  29   16   40 1
  30   17   18 ar
  31   17   20 1
  32   18   19 ar
  33   18   22 1
  34   19   41 1
  35   20   21 1
  36   20   42 1
  37   21   22 2
  38   22   28 1
  39   23   24 1
  40   24   25 1
  41   24   26 1
  42   24   27 1
  43   28   29 1
  44   28   30 1
  45   28   31 1

#	End of record

