#	Name: ASD01914061
#	Creating user name:	WinNT
#	Creation time:	15. 06. 2019 20:02

#	Modifying user name:	WinNT
#	Modification time:	15. 06. 2019 20:02

#	Program:	/corina/corina34_cracker 3.40 0067  02.08.2006

@<TRIPOS>MOLECULE
ASD01914061
  38   39    0    0    0
SMALL
NO_CHARGES


@<TRIPOS>ATOM
   1 C1            -0.0167     1.3784     0.0096 C.ar    
   2 C2             0.0021    -0.0041     0.0020 C.ar    
   3 C3             1.2074    -0.6814    -0.0131 C.ar    
   4 C4             2.3802     1.4093    -0.0131 C.ar    
   5 C5             1.1695     2.0865     0.0021 C.ar    
   6 O6             3.5484     2.1036    -0.0201 O.3     
   7 C7             4.7565     1.3405    -0.0357 C.3     
   8 C8             5.9399     2.2735    -0.0414 C.ar    
   9 N9             7.1606     1.7732    -0.0557 N.ar    
  10 C10            8.2282     2.5442    -0.0613 C.ar    
  11 C11            8.1003     3.9335    -0.0517 C.ar    
  12 C12            6.8174     4.4944    -0.0366 C.ar    
  13 C13            5.7285     3.6408    -0.0374 C.ar    
  14 C14            9.2990     4.7988    -0.0571 C.2     
  15 N15           10.5284     4.2469    -0.0712 N.am    
  16 O16            9.1757     6.0080    -0.0486 O.2     
  17 C17            2.3963     0.0221    -0.0207 C.ar    
  18 C18           12.0689     5.4960     1.3598 C.3     
  19 C19           11.7163     5.1043    -0.0765 C.3     
  20 C20           12.8895     4.3466    -0.7011 C.3     
  21 H21           -0.9595     1.9052     0.0169 H       
  22 H22           -0.9263    -0.5558     0.0083 H       
  23 H23            1.2194    -1.7613    -0.0187 H       
  24 H24            1.1543     3.1664     0.0077 H       
  25 H25            4.7976     0.7070     0.8504 H       
  26 H26            4.7810     0.7171    -0.9295 H       
  27 H27            9.2113     2.0972    -0.0730 H       
  28 H28            6.6813     5.5658    -0.0288 H       
  29 H29            4.7241     4.0376    -0.0259 H       
  30 H30           10.6268     3.2819    -0.0780 H       
  31 H31            3.3375    -0.5074    -0.0325 H       
  32 H32           12.9526     6.1340     1.3559 H       
  33 H33           11.2330     6.0359     1.8048 H       
  34 H34           12.2721     4.5973     1.9421 H       
  35 H35           11.5130     6.0031    -0.6587 H       
  36 H36           12.6383     4.0675    -1.7244 H       
  37 H37           13.7733     4.9845    -0.7050 H       
  38 H38           13.0928     3.4478    -0.1189 H       
@<TRIPOS>BOND
   1    1    2 ar
   2    1    5 ar
   3    1   21 1
   4    2    3 ar
   5    2   22 1
   6    3   17 ar
   7    3   23 1
   8    4    5 ar
   9    4    6 1
  10    4   17 ar
  11    5   24 1
  12    6    7 1
  13    7    8 1
  14    7   25 1
  15    7   26 1
  16    8    9 ar
  17    8   13 ar
  18    9   10 ar
  19   10   11 ar
  20   10   27 1
  21   11   12 ar
  22   11   14 1
  23   12   13 ar
  24   12   28 1
  25   13   29 1
  26   14   15 am
  27   14   16 2
  28   15   19 1
  29   15   30 1
  30   17   31 1
  31   18   19 1
  32   18   32 1
  33   18   33 1
  34   18   34 1
  35   19   20 1
  36   19   35 1
  37   20   36 1
  38   20   37 1
  39   20   38 1

#	End of record

