#	Name: ASD00170227
#	Creating user name:	WinNT
#	Creation time:	15. 06. 2019 18:31

#	Modifying user name:	WinNT
#	Modification time:	15. 06. 2019 18:31

#	Program:	/corina/corina34_cracker 3.40 0067  02.08.2006

@<TRIPOS>MOLECULE
ASD00170227
  40   42    0    0    0
SMALL
NO_CHARGES


@<TRIPOS>ATOM
   1 C1            -0.0161     1.3326     0.0094 C.2     
   2 C2             0.0021    -0.0041     0.0020 C.2     
   3 C3            -1.3336    -0.5765     0.0108 C.2     
   4 C4            -2.3263     0.3666     0.0249 C.2     
   5 S5            -1.6653     1.9354     0.0208 S.3     
   6 N6            -3.6783     0.0838     0.0355 N.pl3   
   7 C7            -1.5917    -2.0160     0.0050 C.2     
   8 O8            -1.7213    -2.6734    -1.1659 O.3     
   9 O9            -1.6897    -2.6206     1.0562 O.2     
  10 C10            1.2252     2.2044     0.0022 C.3     
  11 C11            2.4303     1.3486     0.4017 C.3     
  12 C12            2.4403     0.0733    -0.4464 C.3     
  13 C13            1.2807    -0.8267    -0.0133 C.3     
  14 C14           -1.9725    -4.0784    -1.0967 C.3     
  15 C15           -2.0867    -4.6376    -2.4915 C.ar    
  16 C16           -0.9607    -5.1053    -3.1429 C.ar    
  17 C17           -1.0654    -5.6182    -4.4223 C.ar    
  18 C18           -2.2961    -5.6637    -5.0501 C.ar    
  19 C19           -3.4222    -5.1968    -4.3984 C.ar    
  20 C20           -3.3182    -4.6880    -3.1173 C.ar    
  21 C21           -2.4101    -6.2219    -6.4453 C.3     
  22 F22           -2.6551    -7.5977    -6.3785 F       
  23 F23           -3.4649    -5.5923    -7.1147 F       
  24 F24           -1.2161    -5.9940    -7.1378 F       
  25 H25           -3.9811    -0.8377     0.0331 H       
  26 H26           -4.3249     0.8068     0.0453 H       
  27 H27            1.3807     2.6106    -0.9972 H       
  28 H28            1.1033     3.0196     0.7154 H       
  29 H29            3.3490     1.9091     0.2283 H       
  30 H30            2.3563     1.0845     1.4566 H       
  31 H31            2.3258     0.3345    -1.4984 H       
  32 H32            3.3837    -0.4532    -0.3014 H       
  33 H33            1.4755    -1.2187     0.9850 H       
  34 H34            1.1755    -1.6516    -0.7179 H       
  35 H35           -1.1511    -4.5691    -0.5746 H       
  36 H36           -2.9030    -4.2550    -0.5572 H       
  37 H37            0.0008    -5.0697    -2.6524 H       
  38 H38           -0.1856    -5.9830    -4.9315 H       
  39 H39           -4.3837    -5.2321    -4.8890 H       
  40 H40           -4.1980    -4.3232    -2.6081 H       
@<TRIPOS>BOND
   1    1    2 2
   2    1   10 1
   3    1    5 1
   4    2    3 1
   5    2   13 1
   6    3    4 2
   7    3    7 1
   8    4    5 1
   9    4    6 1
  10    6   25 1
  11    6   26 1
  12    7    8 1
  13    7    9 2
  14    8   14 1
  15   10   11 1
  16   10   27 1
  17   10   28 1
  18   11   12 1
  19   11   29 1
  20   11   30 1
  21   12   13 1
  22   12   31 1
  23   12   32 1
  24   13   33 1
  25   13   34 1
  26   14   15 1
  27   14   35 1
  28   14   36 1
  29   15   16 ar
  30   15   20 ar
  31   16   17 ar
  32   16   37 1
  33   17   18 ar
  34   17   38 1
  35   18   19 ar
  36   18   21 1
  37   19   20 ar
  38   19   39 1
  39   20   40 1
  40   21   22 1
  41   21   23 1
  42   21   24 1

#	End of record

