#	Name: ASD00068002
#	Creating user name:	WinNT
#	Creation time:	15. 06. 2019 18:29

#	Modifying user name:	WinNT
#	Modification time:	15. 06. 2019 18:29

#	Program:	/corina/corina34_cracker 3.40 0067  02.08.2006

@<TRIPOS>MOLECULE
ASD00068002
  42   43    0    0    0
SMALL
NO_CHARGES


@<TRIPOS>ATOM
   1 C1             1.4693     0.1285    -0.0884 C.2     
   2 C2             0.0044    -0.1631     0.1116 C.3     
   3 C3            -0.5242    -0.9203    -1.0794 C.2     
   4 O4             2.0844    -0.4375    -0.9608 O.2     
   5 O5             2.0895     1.0212     0.6992 O.3     
   6 O6             0.2292    -1.5701    -1.7650 O.2     
   7 O7            -1.8319    -0.8729    -1.3784 O.3     
   8 C8            -0.1800    -1.0063     1.3749 C.3     
   9 C9            -1.6669    -1.3063     1.5753 C.3     
  10 C10           -2.4000    -0.0268     1.8858 C.2     
  11 C11           -3.8548    -0.0475     2.1072 C.ar    
  12 C12           -4.5388     1.1378     2.3956 C.ar    
  13 C13           -5.9020     1.1102     2.6013 C.ar    
  14 C14           -6.5932    -0.0863     2.5230 C.ar    
  15 C15           -5.9234    -1.2635     2.2385 C.ar    
  16 C16           -4.5613    -1.2516     2.0246 C.ar    
  17 C17           -8.0830    -0.1074     2.7492 C.3     
  18 F18           -8.7425     0.0851     1.5305 F       
  19 F19           -8.4550    -1.3425     3.2908 F       
  20 F20           -8.4345     0.9157     3.6364 F       
  21 C21            0.5785    -2.3004     1.2302 C.ar    
  22 C22            1.5813    -2.6178     2.1272 C.ar    
  23 C23            2.2770    -3.8049     1.9945 C.ar    
  24 C24            1.9698    -4.6748     0.9650 C.ar    
  25 C25            0.9664    -4.3578     0.0685 C.ar    
  26 C26            0.2677    -3.1727     0.2038 C.ar    
  27 O27           -1.7914     1.0197     1.9532 O.2     
  28 H28           -0.5415     0.7744     0.2176 H       
  29 H29            3.0444     1.1202     0.5832 H       
  30 H30           -2.1239    -1.3748    -2.1516 H       
  31 H31            0.1993    -0.4572     2.2367 H       
  32 H32           -2.0745    -1.7470     0.6655 H       
  33 H33           -1.7882    -2.0047     2.4033 H       
  34 H34           -4.0007     2.0722     2.4574 H       
  35 H35           -6.4316     2.0246     2.8245 H       
  36 H36           -6.4697    -2.1933     2.1798 H       
  37 H37           -4.0407    -2.1703     1.7979 H       
  38 H38            1.8213    -1.9382     2.9315 H       
  39 H39            3.0610    -4.0526     2.6948 H       
  40 H40            2.5139    -5.6019     0.8608 H       
  41 H41            0.7266    -5.0372    -0.7360 H       
  42 H42           -0.5187    -2.9267    -0.4944 H       
@<TRIPOS>BOND
   1    1    2 1
   2    1    4 2
   3    1    5 1
   4    2    3 1
   5    2    8 1
   6    2   28 1
   7    3    6 2
   8    3    7 1
   9    5   29 1
  10    7   30 1
  11    8    9 1
  12    8   21 1
  13    8   31 1
  14    9   10 1
  15    9   32 1
  16    9   33 1
  17   10   11 1
  18   10   27 2
  19   11   12 ar
  20   11   16 ar
  21   12   13 ar
  22   12   34 1
  23   13   14 ar
  24   13   35 1
  25   14   15 ar
  26   14   17 1
  27   15   16 ar
  28   15   36 1
  29   16   37 1
  30   17   18 1
  31   17   19 1
  32   17   20 1
  33   21   22 ar
  34   21   26 ar
  35   22   23 ar
  36   22   38 1
  37   23   24 ar
  38   23   39 1
  39   24   25 ar
  40   24   40 1
  41   25   26 ar
  42   25   41 1
  43   26   42 1

#	End of record

