#	Name: ASD01900525
#	Creating user name:	WinNT
#	Creation time:	15. 06. 2019 19:52

#	Modifying user name:	WinNT
#	Modification time:	15. 06. 2019 19:52

#	Program:	/corina/corina34_cracker 3.40 0067  02.08.2006

@<TRIPOS>MOLECULE
ASD01900525
  26   28    0    0    0
SMALL
NO_CHARGES


@<TRIPOS>ATOM
   1 C1            -0.0193     1.3997    -0.0223 C.ar    
   2 C2            -0.0004    -0.0056     0.0015 C.ar    
   3 C3             1.2256    -0.6602    -0.0432 C.ar    
   4 C4             2.3767     0.1054    -0.1095 C.ar    
   5 C5             2.2815     1.4879    -0.1295 C.ar    
   6 N6             1.1121     2.0906    -0.0861 N.ar    
   7 O7            -1.2775    -0.4289     0.0672 O.3     
   8 C8            -1.4411     1.7706     0.0419 C.2     
   9 C9            -2.1284     0.6150     0.0876 C.2     
  10 N10           -1.9750     3.0711     0.0462 N.pl3   
  11 C11           -3.3558     3.2592    -0.0394 C.ar    
  12 C12           -3.9609     4.3013     0.6525 C.ar    
  13 C13           -5.3268     4.4846     0.5652 C.ar    
  14 C14           -6.0924     3.6325    -0.2097 C.ar    
  15 C15           -5.4936     2.5940    -0.8993 C.ar    
  16 C16           -4.1275     2.4082    -0.8212 C.ar    
  17 H17            1.2782    -1.7388    -0.0262 H       
  18 H18            3.3447    -0.3723    -0.1451 H       
  19 H19            3.1825     2.0810    -0.1813 H       
  20 H20           -3.2043     0.5360     0.1377 H       
  21 H21           -1.3840     3.8377     0.1086 H       
  22 H22           -3.3637     4.9668     1.2581 H       
  23 H23           -5.7978     5.2941     1.1029 H       
  24 H24           -7.1604     3.7782    -0.2762 H       
  25 H25           -6.0946     1.9301    -1.5030 H       
  26 H26           -3.6599     1.5999    -1.3638 H       
@<TRIPOS>BOND
   1    1    2 ar
   2    1    6 ar
   3    1    8 1
   4    2    3 ar
   5    2    7 1
   6    3    4 ar
   7    3   17 1
   8    4    5 ar
   9    4   18 1
  10    5    6 ar
  11    5   19 1
  12    7    9 1
  13    8    9 2
  14    8   10 1
  15    9   20 1
  16   10   11 1
  17   10   21 1
  18   11   12 ar
  19   11   16 ar
  20   12   13 ar
  21   12   22 1
  22   13   14 ar
  23   13   23 1
  24   14   15 ar
  25   14   24 1
  26   15   16 ar
  27   15   25 1
  28   16   26 1

#	End of record

