#	Name: ASD03331509
#	Creating user name:	WinNT
#	Creation time:	15. 06. 2019 20:39

#	Modifying user name:	WinNT
#	Modification time:	15. 06. 2019 20:39

#	Program:	/corina/corina34_cracker 3.40 0067  02.08.2006

@<TRIPOS>MOLECULE
ASD03331509
  56   60    0    0    0
SMALL
NO_CHARGES


@<TRIPOS>ATOM
   1 C1            -0.0180     1.4750     0.0102 C.ar    
   2 C2             0.0021    -0.0041     0.0020 C.2     
   3 N3            -1.0260    -0.8167     0.3870 N.pl3   
   4 C4            -0.6033    -2.1001     0.2430 C.2     
   5 C5             0.6686    -2.0534    -0.2417 C.2     
   6 N6             1.0084    -0.7534    -0.3815 N.2     
   7 C7             1.5197    -3.2130    -0.5617 C.2     
   8 N8             2.7663    -3.0232    -1.0373 N.am    
   9 C9             1.1793     2.1911    -0.0013 C.ar    
  10 O10            1.0971    -4.3415    -0.3965 O.2     
  11 C11            3.6124    -4.1761    -1.3554 C.3     
  12 C12            1.1546     3.5722     0.0059 C.ar    
  13 C13           -0.0585     4.2459     0.0249 C.ar    
  14 C14           -1.2490     3.5376     0.0363 C.ar    
  15 C15           -1.2346     2.1584     0.0234 C.ar    
  16 C16           -2.3470    -0.3898     0.8571 C.3     
  17 C17           -2.9250    -1.4570     1.7893 C.3     
  18 C18           -3.7175    -2.4807     0.9780 C.3     
  19 C19           -2.8086    -3.1895    -0.0212 C.3     
  20 C20           -1.4048    -3.3309     0.5756 C.3     
  21 F21            2.3127     4.2678    -0.0051 F       
  22 F22           -0.0785     5.5967     0.0328 F       
  23 C23            5.0803    -3.7641    -1.2641 C.3     
  24 C24            5.9391    -4.9127    -1.8064 C.3     
  25 C25            5.7249    -5.0032    -3.3159 C.3     
  26 C26            4.2547    -5.0488    -3.6407 C.ar    
  27 C27            3.2851    -4.6650    -2.7421 C.ar    
  28 C28            3.8845    -5.4977    -4.9021 C.ar    
  29 C29            2.5544    -5.5591    -5.2619 C.ar    
  30 C30            1.5807    -5.1704    -4.3605 C.ar    
  31 C31            1.9461    -4.7256    -3.1071 C.ar    
  32 H32            3.1034    -2.1232    -1.1691 H       
  33 H33            2.1233     1.6668    -0.0153 H       
  34 H34            3.4176    -4.9736    -0.6384 H       
  35 H35           -2.1906     4.0665     0.0511 H       
  36 H36           -2.1637     1.6079     0.0323 H       
  37 H37           -2.2536     0.5525     1.3969 H       
  38 H38           -3.0107    -0.2553     0.0030 H       
  39 H39           -2.1116    -1.9603     2.3120 H       
  40 H40           -3.5836    -0.9835     2.5174 H       
  41 H41           -4.1532    -3.2166     1.6537 H       
  42 H42           -4.5175    -1.9724     0.4397 H       
  43 H43           -3.2113    -4.1783    -0.2407 H       
  44 H44           -2.7553    -2.6067    -0.9408 H       
  45 H45           -0.9162    -4.2093     0.1540 H       
  46 H46           -1.4778    -3.4371     1.6580 H       
  47 H47            5.2478    -2.8672    -1.8605 H       
  48 H48            5.3428    -3.5686    -0.2244 H       
  49 H49            6.9904    -4.7162    -1.5959 H       
  50 H50            5.6390    -5.8492    -1.3362 H       
  51 H51            6.1720    -4.1322    -3.7952 H       
  52 H52            6.2046    -5.9062    -3.6935 H       
  53 H53            4.6445    -5.8007    -5.6071 H       
  54 H54            2.2745    -5.9093    -6.2444 H       
  55 H55            0.5376    -5.2148    -4.6370 H       
  56 H56            1.1850    -4.4219    -2.4036 H       
@<TRIPOS>BOND
   1    1    2 1
   2    1    9 ar
   3    1   15 ar
   4    2    3 1
   5    2    6 2
   6    3    4 1
   7    3   16 1
   8    4    5 2
   9    4   20 1
  10    5    6 1
  11    5    7 1
  12    7    8 am
  13    7   10 2
  14    8   11 1
  15    8   32 1
  16    9   12 ar
  17    9   33 1
  18   11   23 1
  19   11   27 1
  20   11   34 1
  21   12   13 ar
  22   12   21 1
  23   13   14 ar
  24   13   22 1
  25   14   15 ar
  26   14   35 1
  27   15   36 1
  28   16   17 1
  29   16   37 1
  30   16   38 1
  31   17   18 1
  32   17   39 1
  33   17   40 1
  34   18   19 1
  35   18   41 1
  36   18   42 1
  37   19   20 1
  38   19   43 1
  39   19   44 1
  40   20   45 1
  41   20   46 1
  42   23   24 1
  43   23   47 1
  44   23   48 1
  45   24   25 1
  46   24   49 1
  47   24   50 1
  48   25   26 1
  49   25   51 1
  50   25   52 1
  51   26   27 ar
  52   26   28 ar
  53   27   31 ar
  54   28   29 ar
  55   28   53 1
  56   29   30 ar
  57   29   54 1
  58   30   31 ar
  59   30   55 1
  60   31   56 1

#	End of record

