#	Name: ASD03090661
#	Creating user name:	WinNT
#	Creation time:	15. 06. 2019 20:29

#	Modifying user name:	WinNT
#	Modification time:	15. 06. 2019 20:29

#	Program:	/corina/corina34_cracker 3.40 0067  02.08.2006

@<TRIPOS>MOLECULE
ASD03090661
  33   34    0    0    0
SMALL
NO_CHARGES


@<TRIPOS>ATOM
   1 N1            -0.1766     1.3451    -0.5681 N.am    
   2 C2            -0.1679    -0.0024    -0.5927 C.2     
   3 O3             0.7313    -0.5944    -1.1581 O.2     
   4 N4            -1.1558    -0.6938     0.0094 N.am    
   5 C5            -1.1931    -2.0935    -0.0881 C.ar    
   6 C6            -2.4053    -2.7687     0.0336 C.ar    
   7 C7            -2.4395    -4.1497    -0.0635 C.ar    
   8 C8            -1.2673    -4.8582    -0.2816 C.ar    
   9 C9            -0.0602    -4.1845    -0.4022 C.ar    
  10 C10           -0.0241    -2.8049    -0.3114 C.ar    
  11 O11           -1.3009    -6.2144    -0.3769 O.3     
  12 C12           -2.5773    -6.8428    -0.2426 C.3     
  13 O13           -3.5538    -2.0726     0.2479 O.3     
  14 C14           -4.7599    -2.8304     0.3626 C.3     
  15 Cl15           1.4056    -5.0740    -0.6741 Cl      
  16 N16            0.8503     2.0638    -1.1940 N.pl3   
  17 N17            0.9668     3.4588    -1.2457 N.2     
  18 C18            2.0522     3.7542    -1.9140 C.2     
  19 C19            2.6615     2.5583    -2.3092 C.2     
  20 C20            1.9056     1.5341    -1.8488 C.2     
  21 Br21           4.2619     2.4005    -3.3039 Br      
  22 H22           -0.8960     1.8174    -0.1206 H       
  23 H23           -1.8411    -0.2240     0.5101 H       
  24 H24           -3.3785    -4.6749     0.0310 H       
  25 H25            0.9156    -2.2818    -0.4103 H       
  26 H26           -2.9971    -6.6074     0.7354 H       
  27 H27           -3.2458    -6.4777    -1.0223 H       
  28 H28           -2.4627    -7.9225    -0.3385 H       
  29 H29           -5.5986    -2.1551     0.5315 H       
  30 H30           -4.9250    -3.3920    -0.5569 H       
  31 H31           -4.6760    -3.5222     1.2008 H       
  32 H32            2.4149     4.7494    -2.1248 H       
  33 H33            2.1086     0.4819    -1.9836 H       
@<TRIPOS>BOND
   1    1    2 am
   2    1   16 1
   3    1   22 1
   4    2    3 2
   5    2    4 am
   6    4    5 1
   7    4   23 1
   8    5    6 ar
   9    5   10 ar
  10    6    7 ar
  11    6   13 1
  12    7    8 ar
  13    7   24 1
  14    8    9 ar
  15    8   11 1
  16    9   10 ar
  17    9   15 1
  18   10   25 1
  19   11   12 1
  20   12   26 1
  21   12   27 1
  22   12   28 1
  23   13   14 1
  24   14   29 1
  25   14   30 1
  26   14   31 1
  27   16   17 1
  28   16   20 1
  29   17   18 2
  30   18   19 1
  31   18   32 1
  32   19   20 2
  33   19   21 1
  34   20   33 1

#	End of record

