#	Name: ASD05233006
#	Creating user name:	WinNT
#	Creation time:	15. 06. 2019 20:57

#	Modifying user name:	WinNT
#	Modification time:	15. 06. 2019 20:57

#	Program:	/corina/corina34_cracker 3.40 0067  02.08.2006

@<TRIPOS>MOLECULE
ASD05233006
  24   25    0    0    0
SMALL
NO_CHARGES


@<TRIPOS>ATOM
   1 C1            -0.0163     1.3476     0.0095 C.2     
   2 C2             0.0021    -0.0041     0.0020 C.2     
   3 C3            -1.3311    -0.4495     0.0129 C.2     
   4 C4            -2.1289     0.6555     0.0267 C.2     
   5 N5            -1.3164     1.7623     0.0301 N.pl3   
   6 C6            -3.6068     0.6613     0.0410 C.ar    
   7 C7            -4.3018     0.1463     1.1420 C.ar    
   8 C8            -5.6866     0.1561     1.1461 C.ar    
   9 C9            -6.3793     0.6721     0.0665 C.ar    
  10 C10           -5.6961     1.1820    -1.0237 C.ar    
  11 C11           -4.3164     1.1850    -1.0401 C.ar    
  12 O12           -3.6202    -0.3614     2.2021 O.3     
  13 Br13          -1.9106    -2.2495     0.0090 Br      
  14 Br14           1.5439    -1.0987    -0.0197 Br      
  15 Br15           1.5030     2.4736     0.0010 Br      
  16 C16           -4.3962    -0.8691     3.2893 C.3     
  17 H17           -1.6163     2.6847     0.0392 H       
  18 H18           -6.2262    -0.2403     1.9935 H       
  19 H19           -7.4593     0.6769     0.0738 H       
  20 H20           -6.2449     1.5829    -1.8630 H       
  21 H21           -3.7866     1.5842    -1.8923 H       
  22 H22           -5.0179    -0.0713     3.6957 H       
  23 H23           -5.0321    -1.6802     2.9343 H       
  24 H24           -3.7307    -1.2431     4.0673 H       
@<TRIPOS>BOND
   1    1    2 2
   2    1   15 1
   3    1    5 1
   4    2    3 1
   5    2   14 1
   6    3    4 2
   7    3   13 1
   8    4    5 1
   9    4    6 1
  10    5   17 1
  11    6    7 ar
  12    6   11 ar
  13    7    8 ar
  14    7   12 1
  15    8    9 ar
  16    8   18 1
  17    9   10 ar
  18    9   19 1
  19   10   11 ar
  20   10   20 1
  21   11   21 1
  22   12   16 1
  23   16   22 1
  24   16   23 1
  25   16   24 1

#	End of record

