#	Name: ASD01900565
#	Creating user name:	WinNT
#	Creation time:	15. 06. 2019 19:52

#	Modifying user name:	WinNT
#	Modification time:	15. 06. 2019 19:52

#	Program:	/corina/corina34_cracker 3.40 0067  02.08.2006

@<TRIPOS>MOLECULE
ASD01900565
  39   42    0    0    0
SMALL
NO_CHARGES


@<TRIPOS>ATOM
   1 S1             2.6815    -1.8732    -1.6946 S.3     
   2 C2             1.2122    -1.6291    -0.7550 C.2     
   3 N3             1.3387    -0.5391    -0.0472 N.2     
   4 C4             2.4700     0.1015    -0.1825 C.2     
   5 C5             3.3532    -0.4463    -1.0320 C.2     
   6 C6             0.0330    -2.5103    -0.7661 C.2     
   7 O7             0.0231    -3.5043    -1.4672 O.2     
   8 N8            -1.0356    -2.2156     0.0004 N.am    
   9 C9            -2.1932    -2.9975    -0.0826 C.ar    
  10 C10           -2.0929    -4.3668    -0.2940 C.ar    
  11 C11           -3.2357    -5.1380    -0.3759 C.ar    
  12 C12           -4.4853    -4.5438    -0.2469 C.ar    
  13 C13           -4.5848    -3.1758    -0.0361 C.ar    
  14 C14           -3.4422    -2.4054     0.0520 C.ar    
  15 O15           -8.4239    -8.7152    -0.4096 O.3     
  16 C16           -7.4726    -8.0893     0.4585 C.3     
  17 C17           -7.4833    -6.5820     0.1808 C.3     
  18 N18           -7.3221    -6.4219    -1.2828 N.am    
  19 C19           -8.1379    -7.1612    -2.2507 C.3     
  20 C20           -8.1303    -8.6337    -1.8046 C.3     
  21 C21           -6.3048    -5.5819    -1.4723 C.2     
  22 N22           -5.6469    -5.3274    -0.3301 N.am    
  23 C23           -6.2405    -5.9192     0.7289 C.2     
  24 O24           -6.0081    -5.1041    -2.5497 O.2     
  25 O25           -5.8566    -5.9189     1.8790 O.2     
  26 Cl26          -3.1112    -6.8492    -0.6407 Cl      
  27 H27            2.6807     1.0142     0.3550 H       
  28 H28            4.3314    -0.0497    -1.2606 H       
  29 H29           -1.0024    -1.4616     0.6097 H       
  30 H30           -1.1215    -4.8281    -0.3946 H       
  31 H31           -5.5561    -2.7142     0.0635 H       
  32 H32           -3.5201    -1.3415     0.2208 H       
  33 H33           -7.7471    -8.2731     1.4973 H       
  34 H34           -6.4783    -8.4913     0.2643 H       
  35 H35           -8.3995    -6.1141     0.5408 H       
  36 H36           -9.1578    -6.7767    -2.2492 H       
  37 H37           -7.7062    -7.0716    -3.2475 H       
  38 H38           -7.1473    -9.0650    -1.9941 H       
  39 H39           -8.8828    -9.1868    -2.3666 H       
@<TRIPOS>BOND
   1    1    2 1
   2    1    5 1
   3    2    3 2
   4    2    6 1
   5    3    4 1
   6    4    5 2
   7    4   27 1
   8    5   28 1
   9    6    7 2
  10    6    8 am
  11    8    9 1
  12    8   29 1
  13    9   10 ar
  14    9   14 ar
  15   10   11 ar
  16   10   30 1
  17   11   12 ar
  18   11   26 1
  19   12   13 ar
  20   12   22 1
  21   13   14 ar
  22   13   31 1
  23   14   32 1
  24   15   16 1
  25   15   20 1
  26   16   17 1
  27   16   33 1
  28   16   34 1
  29   17   18 1
  30   17   23 1
  31   17   35 1
  32   18   19 1
  33   18   21 am
  34   19   20 1
  35   19   36 1
  36   19   37 1
  37   20   38 1
  38   20   39 1
  39   21   22 am
  40   21   24 2
  41   22   23 am
  42   23   25 2

#	End of record

