#	Name: ASD01400002
#	Creating user name:	WinNT
#	Creation time:	15. 06. 2019 19:16

#	Modifying user name:	WinNT
#	Modification time:	15. 06. 2019 19:16

#	Program:	/corina/corina34_cracker 3.40 0067  02.08.2006

@<TRIPOS>MOLECULE
ASD01400002
  19   19    0    0    0
SMALL
NO_CHARGES


@<TRIPOS>ATOM
   1 C1            -0.0184     1.5028     0.0103 C.3     
   2 C2             0.0021    -0.0041     0.0020 C.2     
   3 O3             1.0605    -0.5961    -0.0113 O.2     
   4 N4            -1.1558    -0.6938     0.0094 N.am    
   5 C5            -1.1370    -2.0844     0.0017 C.2     
   6 N6            -0.0714    -2.8270    -0.0120 N.2     
   7 N7            -0.2299    -4.0795    -0.0166 N.2     
   8 C8            -1.4518    -4.5090    -0.0071 C.2     
   9 S9            -2.5151    -3.1017     0.0163 S.3     
  10 S10           -1.9605    -6.1960    -0.0110 S.o2    
  11 O11           -1.9170    -6.6313     1.3410 O.2     
  12 O12           -3.1334    -6.2596    -0.8106 O.2     
  13 N13           -0.7978    -7.0567    -0.8170 N.am    
  14 H14            1.0042     1.8801     0.0026 H       
  15 H15           -0.5455     1.8639    -0.8728 H       
  16 H16           -0.5286     1.8543     0.9071 H       
  17 H17           -2.0023    -0.2203     0.0200 H       
  18 H18           -0.6310    -7.9833    -0.5834 H       
  19 H19           -0.2835    -6.6343    -1.5227 H       
@<TRIPOS>BOND
   1    1    2 1
   2    1   14 1
   3    1   15 1
   4    1   16 1
   5    2    3 2
   6    2    4 am
   7    4    5 1
   8    4   17 1
   9    5    6 2
  10    5    9 1
  11    6    7 1
  12    7    8 2
  13    8    9 1
  14    8   10 1
  15   10   11 2
  16   10   12 2
  17   10   13 am
  18   13   18 1
  19   13   19 1

#	End of record

