#	Name: ASD01890471
#	Creating user name:	WinNT
#	Creation time:	15. 06. 2019 19:51

#	Modifying user name:	WinNT
#	Modification time:	15. 06. 2019 19:51

#	Program:	/corina/corina34_cracker 3.40 0067  02.08.2006

@<TRIPOS>MOLECULE
ASD01890471
  51   54    0    0    0
SMALL
NO_CHARGES


@<TRIPOS>ATOM
   1 C1            -0.0177     1.4577     0.0101 C.2     
   2 C2             0.0021    -0.0041     0.0020 C.2     
   3 C3             1.1801    -0.6630    -0.0128 C.2     
   4 C4             1.2006    -2.1699    -0.0211 C.3     
   5 C5             1.3195    -2.6704    -1.4620 C.3     
   6 O6             1.0272     2.0801     0.0034 O.2     
   7 O7            -1.1952     2.1163     0.0192 O.3     
   8 C8             2.7860     0.8742     1.0724 C.ar    
   9 C9             2.4437     0.0896    -0.0208 C.ar    
  10 C10            3.2988     0.0093    -1.1373 C.ar    
  11 C11            4.4697     0.6939    -1.1667 C.ar    
  12 C12            4.8444     1.4972    -0.0736 C.ar    
  13 C13            6.0525     2.2135    -0.0826 C.ar    
  14 C14            6.3896     2.9826     0.9893 C.ar    
  15 C15            5.5532     3.0720     2.1005 C.ar    
  16 C16            4.3750     2.3924     2.1462 C.ar    
  17 C17            3.9927     1.5877     1.0572 C.ar    
  18 C18            1.3774    -6.9454    -1.4850 C.ar    
  19 C19            0.1664    -6.2620    -1.5749 C.ar    
  20 C20            0.1536    -4.8819    -1.5673 C.ar    
  21 C21            1.3399    -4.1772    -1.4703 C.ar    
  22 C22            2.5449    -4.8505    -1.3813 C.ar    
  23 C23            2.5694    -6.2305    -1.3880 C.ar    
  24 C24            1.3970    -8.4292    -1.4865 C.ar    
  25 C25            2.6080    -9.1125    -1.3967 C.ar    
  26 C26            2.6204   -10.4927    -1.3986 C.ar    
  27 C27            1.4336   -11.1974    -1.4899 C.ar    
  28 C28            0.2287   -10.5241    -1.5798 C.ar    
  29 C29            0.2041    -9.1441    -1.5720 C.ar    
  30 H30           -0.9258    -0.5567     0.0079 H       
  31 H31            2.0528    -2.5249     0.5584 H       
  32 H32            0.2784    -2.5482     0.4201 H       
  33 H33            0.4672    -2.3154    -2.0414 H       
  34 H34            2.2416    -2.2921    -1.9031 H       
  35 H35           -1.1072     3.0792     0.0240 H       
  36 H36            2.1265     0.9375     1.9253 H       
  37 H37            3.0190    -0.6051    -1.9802 H       
  38 H38            5.1150     0.6221    -2.0297 H       
  39 H39            6.7116     2.1543    -0.9361 H       
  40 H40            7.3196     3.5315     0.9784 H       
  41 H41            5.8444     3.6893     2.9375 H       
  42 H42            3.7365     2.4708     3.0137 H       
  43 H43           -0.7604    -6.8113    -1.6506 H       
  44 H44           -0.7844    -4.3512    -1.6368 H       
  45 H45            3.4683    -4.2954    -1.3061 H       
  46 H46            3.5108    -6.7552    -1.3178 H       
  47 H47            3.5352    -8.5633    -1.3261 H       
  48 H48            3.5584   -11.0234    -1.3290 H       
  49 H49            1.4479   -12.2773    -1.4914 H       
  50 H50           -0.6949   -11.0793    -1.6512 H       
  51 H51           -0.7376    -8.6194    -1.6370 H       
@<TRIPOS>BOND
   1    1    2 1
   2    1    6 2
   3    1    7 1
   4    2    3 2
   5    2   30 1
   6    3    4 1
   7    3    9 1
   8    4    5 1
   9    4   31 1
  10    4   32 1
  11    5   21 1
  12    5   33 1
  13    5   34 1
  14    7   35 1
  15    8    9 ar
  16    8   17 ar
  17    8   36 1
  18    9   10 ar
  19   10   11 ar
  20   10   37 1
  21   11   12 ar
  22   11   38 1
  23   12   13 ar
  24   12   17 ar
  25   13   14 ar
  26   13   39 1
  27   14   15 ar
  28   14   40 1
  29   15   16 ar
  30   15   41 1
  31   16   17 ar
  32   16   42 1
  33   18   19 ar
  34   18   23 ar
  35   18   24 1
  36   19   20 ar
  37   19   43 1
  38   20   21 ar
  39   20   44 1
  40   21   22 ar
  41   22   23 ar
  42   22   45 1
  43   23   46 1
  44   24   25 ar
  45   24   29 ar
  46   25   26 ar
  47   25   47 1
  48   26   27 ar
  49   26   48 1
  50   27   28 ar
  51   27   49 1
  52   28   29 ar
  53   28   50 1
  54   29   51 1

#	End of record

