#	Name: ASD01150081
#	Creating user name:	WinNT
#	Creation time:	15. 06. 2019 19:03

#	Modifying user name:	WinNT
#	Modification time:	15. 06. 2019 19:03

#	Program:	/corina/corina34_cracker 3.40 0067  02.08.2006

@<TRIPOS>MOLECULE
ASD01150081
  42   45    0    0    0
SMALL
NO_CHARGES


@<TRIPOS>ATOM
   1 C1            -0.0167     1.3793     0.0096 C.ar    
   2 C2             0.0021    -0.0041     0.0020 C.ar    
   3 C3             1.2098    -0.6789    -0.0131 C.ar    
   4 C4             2.3967     0.0292    -0.0207 C.ar    
   5 C5             2.3773     1.4115    -0.0131 C.ar    
   6 C6             1.1709     2.0863     0.0021 C.ar    
   7 Cl7           -1.4892    -0.8928     0.0121 Cl      
   8 C8             3.6719     2.1830    -0.0208 C.3     
   9 N9             4.0787     2.4404    -1.4044 N.am    
  10 C10            3.6637     3.5616    -2.0187 C.2     
  11 N11            4.0121     3.8411    -3.2888 N.am    
  12 C12            4.8172     2.9637    -3.9969 C.2     
  13 C13            5.2525     1.8004    -3.3713 C.2     
  14 C14            4.8688     1.5512    -2.0410 C.2     
  15 N15            5.3170     2.9658    -5.2345 N.2     
  16 C16            6.0373     1.8827    -5.4304 C.2     
  17 N17            6.0295     1.1242    -4.3019 N.pl3   
  18 O18            5.2387     0.5387    -1.4727 O.2     
  19 O19            2.9557     4.3426    -1.4125 O.2     
  20 C20            6.6806    -0.1032    -4.1143 C.ar    
  21 O21            6.6848     1.5721    -6.5756 O.3     
  22 C22            6.5733     2.5005    -7.6562 C.3     
  23 C23            8.0674    -0.1652    -4.1382 C.ar    
  24 C24            8.7069    -1.3752    -3.9533 C.ar    
  25 C25            7.9659    -2.5263    -3.7446 C.ar    
  26 C26            6.5826    -2.4666    -3.7210 C.ar    
  27 C27            5.9396    -1.2573    -3.8989 C.ar    
  28 F28            8.5933    -3.7091    -3.5644 F       
  29 H29           -0.9592     1.9066     0.0170 H       
  30 H30            1.2250    -1.7588    -0.0187 H       
  31 H31            3.3395    -0.4974    -0.0321 H       
  32 H32            1.1564     3.1662     0.0080 H       
  33 H33            3.5331     3.1307     0.4994 H       
  34 H34            4.4442     1.6017     0.4829 H       
  35 H35            3.6988     4.6575    -3.7087 H       
  36 H36            5.5250     2.6114    -7.9333 H       
  37 H37            6.9717     3.4669    -7.3474 H       
  38 H38            7.1383     2.1313    -8.5122 H       
  39 H39            8.6456     0.7322    -4.3015 H       
  40 H40            9.7857    -1.4238    -3.9717 H       
  41 H41            6.0064    -3.3655    -3.5589 H       
  42 H42            4.8608    -1.2111    -3.8801 H       
@<TRIPOS>BOND
   1    1    2 ar
   2    1    6 ar
   3    1   29 1
   4    2    3 ar
   5    2    7 1
   6    3    4 ar
   7    3   30 1
   8    4    5 ar
   9    4   31 1
  10    5    6 ar
  11    5    8 1
  12    6   32 1
  13    8    9 1
  14    8   33 1
  15    8   34 1
  16    9   10 am
  17    9   14 am
  18   10   11 am
  19   10   19 2
  20   11   12 1
  21   11   35 1
  22   12   13 2
  23   12   15 1
  24   13   14 1
  25   13   17 1
  26   14   18 2
  27   15   16 2
  28   16   17 1
  29   16   21 1
  30   17   20 1
  31   20   23 ar
  32   20   27 ar
  33   21   22 1
  34   22   36 1
  35   22   37 1
  36   22   38 1
  37   23   24 ar
  38   23   39 1
  39   24   25 ar
  40   24   40 1
  41   25   26 ar
  42   25   28 1
  43   26   27 ar
  44   26   41 1
  45   27   42 1

#	End of record

