#	Name: ASD01830036
#	Creating user name:	WinNT
#	Creation time:	15. 06. 2019 19:36

#	Modifying user name:	WinNT
#	Modification time:	15. 06. 2019 19:36

#	Program:	/corina/corina34_cracker 3.40 0067  02.08.2006

@<TRIPOS>MOLECULE
ASD01830036
  38   37    0    0    0
SMALL
NO_CHARGES


@<TRIPOS>ATOM
   1 N1            -0.4574     1.0983     0.0442 N.4     
   2 C2            -0.6796    -0.3511     0.1324 C.3     
   3 C3             0.9821     1.3668    -0.0730 C.3     
   4 C4            -1.1522     1.6293    -1.1362 C.3     
   5 C5            -0.9798     1.7483     1.2535 C.3     
   6 C6            -0.2836     1.2163     2.4363 C.1     
   7 C7             0.2717     0.7919     3.3796 C.1     
   8 C8             0.9679     0.2599     4.5624 C.3     
   9 O9             0.4515     0.9024     5.7577 O.3     
  10 C10            0.9868     0.5252     6.9343 C.2     
  11 N11            0.5524     1.0827     8.0818 N.am    
  12 O12            1.8616    -0.3178     6.9613 O.2     
  13 C13            1.0380     0.6224     9.3111 C.ar    
  14 C14            2.3584     0.2081     9.4263 C.ar    
  15 C15            2.8348    -0.2459    10.6417 C.ar    
  16 C16            1.9967    -0.2881    11.7425 C.ar    
  17 C17            0.6819     0.1239    11.6298 C.ar    
  18 C18            0.2020     0.5845    10.4191 C.ar    
  19 Cl19           4.4852    -0.7642    10.7876 Cl      
  20 H20           -0.1641    -0.7451     1.0082 H       
  21 H21           -1.7478    -0.5502     0.2193 H       
  22 H22           -0.2920    -0.8334    -0.7649 H       
  23 H23            1.3698     0.8845    -0.9704 H       
  24 H24            1.1470     2.4422    -0.1385 H       
  25 H25            1.4977     0.9728     0.8028 H       
  26 H26           -2.2203     1.4301    -1.0492 H       
  27 H27           -0.9873     2.7048    -1.2017 H       
  28 H28           -0.7645     1.1470    -2.0335 H       
  29 H29           -0.8149     2.8238     1.1880 H       
  30 H30           -2.0480     1.5492     1.3405 H       
  31 H31            0.8030    -0.8156     4.6278 H       
  32 H32            2.0360     0.4590     4.4754 H       
  33 H33           -0.0968     1.8029     8.0558 H       
  34 H34            3.0121     0.2404     8.5673 H       
  35 H35            2.3706    -0.6438    12.6912 H       
  36 H36            0.0304     0.0899    12.4905 H       
  37 H37           -0.8240     0.9106    10.3333 H       
  38 Cl38           9.4852     7.8238    17.6912 Cl      
@<TRIPOS>BOND
   1    1    2 1
   2    1    3 1
   3    1    4 1
   4    1    5 1
   5    2   20 1
   6    2   21 1
   7    2   22 1
   8    3   23 1
   9    3   24 1
  10    3   25 1
  11    4   26 1
  12    4   27 1
  13    4   28 1
  14    5    6 1
  15    5   29 1
  16    5   30 1
  17    6    7 3
  18    7    8 1
  19    8    9 1
  20    8   31 1
  21    8   32 1
  22    9   10 1
  23   10   11 am
  24   10   12 2
  25   11   13 1
  26   11   33 1
  27   13   14 ar
  28   13   18 ar
  29   14   15 ar
  30   14   34 1
  31   15   16 ar
  32   15   19 1
  33   16   17 ar
  34   16   35 1
  35   17   18 ar
  36   17   36 1
  37   18   37 1

#	End of record

