#	Name: ASD03731756
#	Creating user name:	WinNT
#	Creation time:	15. 06. 2019 20:46

#	Modifying user name:	WinNT
#	Modification time:	15. 06. 2019 20:46

#	Program:	/corina/corina34_cracker 3.40 0067  02.08.2006

@<TRIPOS>MOLECULE
ASD03731756
  40   41    0    0    0
SMALL
NO_CHARGES


@<TRIPOS>ATOM
   1 C1             0.7603     1.4117    -0.3950 C.2     
   2 C2             0.5755    -0.0464    -0.2974 C.ar    
   3 C3             1.5363    -0.9159    -0.8361 C.ar    
   4 C4             1.3552    -2.2846    -0.7396 C.ar    
   5 C5             0.2267    -2.7932    -0.1125 C.ar    
   6 C6            -0.7271    -1.9320     0.4218 C.ar    
   7 C7            -0.5551    -0.5696     0.3376 C.ar    
   8 O8             1.7471     1.8643    -0.9433 O.2     
   9 N9            -0.1668     2.2444     0.1184 N.am    
  10 S10            0.0410     3.8836     0.0086 S.o2    
  11 O11           -1.0961     4.4258     0.6663 O.2     
  12 O12            1.3520     4.1050     0.5099 O.2     
  13 C13           -0.0273     4.2304    -1.7706 C.3     
  14 O14            2.6384    -0.4167    -1.4496 O.3     
  15 C15            3.5732    -1.3618    -1.9740 C.3     
  16 O16            0.0523    -4.1357    -0.0201 O.3     
  17 C17            0.5762    -4.7745     1.0592 C.ar    
  18 C18            0.5176    -6.1583     1.1432 C.ar    
  19 C19            1.0508    -6.8061     2.2403 C.ar    
  20 C20            1.6432    -6.0752     3.2565 C.ar    
  21 C21            1.7020    -4.6945     3.1743 C.ar    
  22 C22            1.1750    -4.0442     2.0752 C.ar    
  23 C23            0.9874    -8.3090     2.3319 C.3     
  24 F24            2.1640    -6.7102     4.3293 F       
  25 H25            2.0923    -2.9570    -1.1529 H       
  26 H26           -1.6034    -2.3347     0.9079 H       
  27 H27           -1.2953     0.0954     0.7574 H       
  28 H28           -0.9558     1.8835     0.5522 H       
  29 H29           -0.9932     3.9153    -2.1654 H       
  30 H30            0.1022     5.2997    -1.9376 H       
  31 H31            0.7682     3.6845    -2.2780 H       
  32 H32            4.4053    -0.8314    -2.4368 H       
  33 H33            3.9472    -1.9898    -1.1654 H       
  34 H34            3.0799    -1.9852    -2.7198 H       
  35 H35            0.0550    -6.7285     0.3512 H       
  36 H36            2.1637    -4.1258     3.9679 H       
  37 H37            1.2252    -2.9674     2.0091 H       
  38 H38            1.8782    -8.7388     1.8738 H       
  39 H39            0.9374    -8.6074     3.3790 H       
  40 H40            0.1009    -8.6678     1.8090 H       
@<TRIPOS>BOND
   1    1    2 1
   2    1    8 2
   3    1    9 am
   4    2    3 ar
   5    2    7 ar
   6    3    4 ar
   7    3   14 1
   8    4    5 ar
   9    4   25 1
  10    5    6 ar
  11    5   16 1
  12    6    7 ar
  13    6   26 1
  14    7   27 1
  15    9   10 am
  16    9   28 1
  17   10   11 2
  18   10   12 2
  19   10   13 1
  20   13   29 1
  21   13   30 1
  22   13   31 1
  23   14   15 1
  24   15   32 1
  25   15   33 1
  26   15   34 1
  27   16   17 1
  28   17   18 ar
  29   17   22 ar
  30   18   19 ar
  31   18   35 1
  32   19   20 ar
  33   19   23 1
  34   20   21 ar
  35   20   24 1
  36   21   22 ar
  37   21   36 1
  38   22   37 1
  39   23   38 1
  40   23   39 1
  41   23   40 1

#	End of record

