#	Name: ASD03090557
#	Creating user name:	WinNT
#	Creation time:	15. 06. 2019 20:29

#	Modifying user name:	WinNT
#	Modification time:	15. 06. 2019 20:29

#	Program:	/corina/corina34_cracker 3.40 0067  02.08.2006

@<TRIPOS>MOLECULE
ASD03090557
  30   31    0    0    0
SMALL
NO_CHARGES


@<TRIPOS>ATOM
   1 N1            -0.0162     1.3436     0.0094 N.am    
   2 C2            -0.2136     0.1139    -0.5057 C.2     
   3 O3             0.6750    -0.4340    -1.1288 O.2     
   4 N4            -1.3961    -0.5085    -0.3300 N.am    
   5 O5            -2.5586    -3.5649    -1.3405 O.3     
   6 N6            -2.6863    -2.5036    -0.7754 N.2     
   7 C7            -1.6004    -1.7811    -0.8631 C.2     
   8 C8            -0.6706    -2.5518    -1.6106 C.2     
   9 C9            -1.3426    -3.6913    -1.8914 C.2     
  10 C10            1.2474     1.9399    -0.0677 C.ar    
  11 C11            1.3593     3.3162    -0.2179 C.ar    
  12 C12            2.6074     3.9024    -0.2939 C.ar    
  13 C13            3.7458     3.1208    -0.2206 C.ar    
  14 C14            3.6383     1.7494    -0.0710 C.ar    
  15 C15            2.3915     1.1577     0.0113 C.ar    
  16 C16            5.1061     3.7639    -0.3044 C.3     
  17 C17            0.1195     4.1691    -0.2984 C.3     
  18 Cl18           5.0701     0.7719     0.0199 Cl      
  19 H19           -0.7510     1.8169     0.4301 H       
  20 H20           -2.1051    -0.0713     0.1671 H       
  21 H21            0.3388    -2.2885    -1.8904 H       
  22 H22           -0.9721    -4.5381    -2.4501 H       
  23 H23            2.6944     4.9725    -0.4110 H       
  24 H24            2.3077     0.0878     0.1326 H       
  25 H25            5.4445     4.0299     0.6970 H       
  26 H26            5.8118     3.0644    -0.7525 H       
  27 H27            5.0460     4.6626    -0.9183 H       
  28 H28           -0.1696     4.4855     0.7038 H       
  29 H29            0.3216     5.0469    -0.9123 H       
  30 H30           -0.6902     3.5920    -0.7450 H       
@<TRIPOS>BOND
   1    1    2 am
   2    1   10 1
   3    1   19 1
   4    2    3 2
   5    2    4 am
   6    4    7 1
   7    4   20 1
   8    5    6 1
   9    5    9 1
  10    6    7 2
  11    7    8 1
  12    8    9 2
  13    8   21 1
  14    9   22 1
  15   10   11 ar
  16   10   15 ar
  17   11   12 ar
  18   11   17 1
  19   12   13 ar
  20   12   23 1
  21   13   14 ar
  22   13   16 1
  23   14   15 ar
  24   14   18 1
  25   15   24 1
  26   16   25 1
  27   16   26 1
  28   16   27 1
  29   17   28 1
  30   17   29 1
  31   17   30 1

#	End of record

