#	Name: ASD09610043
#	Creating user name:	WinNT
#	Creation time:	15. 06. 2019 21:22

#	Modifying user name:	WinNT
#	Modification time:	15. 06. 2019 21:22

#	Program:	/corina/corina34_cracker 3.40 0067  02.08.2006

@<TRIPOS>MOLECULE
ASD09610043
  35   37    0    0    0
SMALL
NO_CHARGES


@<TRIPOS>ATOM
   1 C1            -0.0167     1.3809     0.0096 C.ar    
   2 C2             0.0021    -0.0041     0.0020 C.ar    
   3 C3             1.2172    -0.6643    -0.0131 C.ar    
   4 C4             2.3891     0.1018    -0.0202 C.ar    
   5 C5             2.2855     1.4929    -0.0117 C.ar    
   6 N6             1.1047     2.0769     0.0027 N.ar    
   7 C7             5.7982    -1.0732    -0.5151 C.2     
   8 N8             5.3780    -1.8973     0.4092 N.2     
   9 C9             4.1101    -1.6087     0.7258 C.2     
  10 C10            3.7149    -0.5529    -0.0358 C.2     
  11 N11            4.7933    -0.2136    -0.8261 N.pl3   
  12 C12            3.2673    -2.3278     1.7473 C.3     
  13 C13            4.8431     0.8237    -1.7722 C.ar    
  14 C14            4.4824     0.5794    -3.0917 C.ar    
  15 C15            4.5319     1.6015    -4.0221 C.ar    
  16 C16            4.9419     2.8700    -3.6387 C.ar    
  17 C17            5.3027     3.1151    -2.3218 C.ar    
  18 C18            5.2477     2.0964    -1.3880 C.ar    
  19 O19            4.9906     3.8737    -4.5543 O.3     
  20 C20            5.4219     5.1546    -4.0904 C.3     
  21 F21            5.5930     2.3370    -0.1042 F       
  22 F22            4.0839    -0.6562    -3.4657 F       
  23 Cl23           7.3831    -1.0729    -1.2235 Cl      
  24 Cl24          -1.5394     2.2145     0.0213 Cl      
  25 H25           -0.9224    -0.5624     0.0082 H       
  26 H26            1.2611    -1.7434    -0.0190 H       
  27 H27            3.1811     2.0963    -0.0170 H       
  28 H28            3.3927    -1.8536     2.7207 H       
  29 H29            2.2191    -2.2799     1.4522 H       
  30 H30            3.5804    -3.3701     1.8079 H       
  31 H31            4.2517     1.4118    -5.0477 H       
  32 H32            5.6220     4.1031    -2.0247 H       
  33 H33            4.7475     5.5039    -3.3085 H       
  34 H34            6.4324     5.0746    -3.6896 H       
  35 H35            5.4148     5.8625    -4.9192 H       
@<TRIPOS>BOND
   1    1    2 ar
   2    1    6 ar
   3    1   24 1
   4    2    3 ar
   5    2   25 1
   6    3    4 ar
   7    3   26 1
   8    4    5 ar
   9    4   10 1
  10    5    6 ar
  11    5   27 1
  12    7    8 2
  13    7   11 1
  14    7   23 1
  15    8    9 1
  16    9   10 2
  17    9   12 1
  18   10   11 1
  19   11   13 1
  20   12   28 1
  21   12   29 1
  22   12   30 1
  23   13   14 ar
  24   13   18 ar
  25   14   15 ar
  26   14   22 1
  27   15   16 ar
  28   15   31 1
  29   16   17 ar
  30   16   19 1
  31   17   18 ar
  32   17   32 1
  33   18   21 1
  34   19   20 1
  35   20   33 1
  36   20   34 1
  37   20   35 1

#	End of record

