#	Name: ASD09740155
#	Creating user name:	WinNT
#	Creation time:	15. 06. 2019 21:22

#	Modifying user name:	WinNT
#	Modification time:	15. 06. 2019 21:22

#	Program:	/corina/corina34_cracker 3.40 0067  02.08.2006

@<TRIPOS>MOLECULE
ASD09740155
  56   58    0    0    0
SMALL
NO_CHARGES


@<TRIPOS>ATOM
   1 S1            -0.0172     1.4168     0.0098 S.o2    
   2 O2            -4.5922     3.0022    -6.3435 O.3     
   3 N3            -4.1239     2.3796    -5.4141 N.2     
   4 C4            -4.0243     4.2161    -6.4131 C.2     
   5 N5            -3.1499     4.2869    -5.4272 N.2     
   6 C6            -3.2245     3.0983    -4.7927 C.2     
   7 C7            -2.4329     2.6833    -3.6074 C.ar    
   8 C8            -4.3209     5.2716    -7.4048 C.ar    
   9 C9            -2.6151     1.4182    -3.0532 C.ar    
  10 C10           -1.5007     3.5552    -3.0491 C.ar    
  11 C11           -0.7677     3.1645    -1.9468 C.ar    
  12 C12           -0.9567     1.9094    -1.3970 C.ar    
  13 C13           -1.8765     1.0375    -1.9511 C.ar    
  14 C14           -5.2773     5.0521    -8.3972 C.ar    
  15 C15           -5.5493     6.0413    -9.3197 C.ar    
  16 C16           -4.8763     7.2488    -9.2624 C.ar    
  17 C17           -3.9266     7.4726    -8.2814 C.ar    
  18 C18           -3.6497     6.4941    -7.3492 C.ar    
  19 O19            0.0021    -0.0041     0.0020 O.2     
  20 O20            1.1617     2.2101     0.0028 O.2     
  21 N21           -0.8748     1.8654     1.3536 N.am    
  22 C22           -6.5813     5.8059   -10.3923 C.3     
  23 C23           -7.1712     4.4031   -10.2334 C.3     
  24 C24           -7.6965     6.8456   -10.2640 C.3     
  25 C25           -5.9242     5.9300   -11.7684 C.3     
  26 C26           -3.1978     8.7905    -8.2273 C.3     
  27 C27           -4.2069     9.9238    -8.0317 C.3     
  28 C28           -2.2103     8.7796    -7.0586 C.3     
  29 C29           -2.4361     9.0062    -9.5366 C.3     
  30 H30           -3.3333     0.7368    -3.4848 H       
  31 H31           -1.3519     4.5352    -3.4781 H       
  32 H32           -0.0448     3.8396    -1.5132 H       
  33 H33           -2.0202     0.0586    -1.5179 H       
  34 H34           -5.8031     4.1099    -8.4432 H       
  35 H35           -5.0929     8.0199    -9.9869 H       
  36 H36           -2.9084     6.6701    -6.5837 H       
  37 H37           -0.7362     2.7410     1.7474 H       
  38 H38           -1.5157     1.2527     1.7468 H       
  39 H39           -7.6393     4.3147    -9.2531 H       
  40 H40           -7.9176     4.2329   -11.0093 H       
  41 H41           -6.3767     3.6625   -10.3248 H       
  42 H42           -7.2763     7.8449   -10.3772 H       
  43 H43           -8.4429     6.6753   -11.0398 H       
  44 H44           -8.1646     6.7572    -9.2837 H       
  45 H45           -5.1297     5.1893   -11.8598 H       
  46 H46           -6.6706     5.7597   -12.5442 H       
  47 H47           -5.5040     6.9294   -11.8815 H       
  48 H48           -4.7496     9.7701    -7.0990 H       
  49 H49           -3.6797    10.8770    -7.9926 H       
  50 H50           -4.9104     9.9316    -8.8643 H       
  51 H51           -1.4914     7.9722    -7.1980 H       
  52 H52           -1.6832     9.7328    -7.0195 H       
  53 H53           -2.7530     8.6259    -6.1259 H       
  54 H54           -3.1395     9.0140   -10.3691 H       
  55 H55           -1.9089     9.9594    -9.4974 H       
  56 H56           -1.7171     8.1988    -9.6759 H       
@<TRIPOS>BOND
   1    1   19 2
   2    1   20 2
   3    1   21 am
   4    1   12 1
   5    2    3 1
   6    2    4 1
   7    3    6 2
   8    4    5 2
   9    4    8 1
  10    5    6 1
  11    6    7 1
  12    7    9 ar
  13    7   10 ar
  14    8   14 ar
  15    8   18 ar
  16    9   13 ar
  17    9   30 1
  18   10   11 ar
  19   10   31 1
  20   11   12 ar
  21   11   32 1
  22   12   13 ar
  23   13   33 1
  24   14   15 ar
  25   14   34 1
  26   15   16 ar
  27   15   22 1
  28   16   17 ar
  29   16   35 1
  30   17   18 ar
  31   17   26 1
  32   18   36 1
  33   21   37 1
  34   21   38 1
  35   22   23 1
  36   22   24 1
  37   22   25 1
  38   23   39 1
  39   23   40 1
  40   23   41 1
  41   24   42 1
  42   24   43 1
  43   24   44 1
  44   25   45 1
  45   25   46 1
  46   25   47 1
  47   26   27 1
  48   26   28 1
  49   26   29 1
  50   27   48 1
  51   27   49 1
  52   27   50 1
  53   28   51 1
  54   28   52 1
  55   28   53 1
  56   29   54 1
  57   29   55 1
  58   29   56 1

#	End of record

