#	Name: ASD01720122
#	Creating user name:	WinNT
#	Creation time:	15. 06. 2019 19:23

#	Modifying user name:	WinNT
#	Modification time:	15. 06. 2019 19:23

#	Program:	/corina/corina34_cracker 3.40 0067  02.08.2006

@<TRIPOS>MOLECULE
ASD01720122
  67   71    0    0    0
SMALL
NO_CHARGES


@<TRIPOS>ATOM
   1 C1             0.0006     1.3673     0.1328 C.ar    
   2 C2             0.0129     0.0014     0.0479 C.ar    
   3 C3             1.2304    -0.6772     0.0651 C.ar    
   4 N4             2.3779    -0.0199     0.1629 N.ar    
   5 C5             2.4150     1.2985     0.2473 C.ar    
   6 C6             1.2253     2.0439     0.2352 C.ar    
   7 O7             3.6068     1.9338     0.3464 O.3     
   8 C8             4.7790     1.1165     0.3536 C.3     
   9 C9             6.0192     2.0047     0.4710 C.3     
  10 C10            7.2743     1.1297     0.4787 C.3     
  11 C11            7.4102     0.4209    -0.8704 C.3     
  12 C12            8.5052     2.0055     0.7210 C.3     
  13 C13            1.2625     3.5125     0.3284 C.2     
  14 O14            2.3296     4.0895     0.4169 O.2     
  15 N15            0.1141     4.2178     0.3158 N.am    
  16 C16            0.1510     5.6794     0.4087 C.3     
  17 C17           -1.1116     6.2630    -0.2287 C.3     
  18 C18           -1.0730     7.7894    -0.1318 C.3     
  19 C19            0.2189     6.0955     1.8794 C.3     
  20 C20            0.2575     7.6219     1.9764 C.3     
  21 C21           -1.0051     8.2055     1.3390 C.3     
  22 C22           -1.0144     5.5687     2.6159 C.3     
  23 C23           -2.3449     5.7362     0.5078 C.3     
  24 C24           -2.2384     7.6787     2.0755 C.3     
  25 C25           -2.2770     6.1523     1.9786 C.3     
  26 O26           -0.9690     9.6312     1.4296 O.3     
  27 N27            1.2417    -2.0592    -0.0209 N.pl3   
  28 C28            2.4591    -2.7442    -0.1420 C.2     
  29 N29            2.5364    -4.0487    -0.0636 N.2     
  30 C30            3.7336    -4.5583    -0.1939 C.2     
  31 S31            4.8894    -3.2535    -0.4423 S.3     
  32 C32            3.6272    -2.1027    -0.3527 C.2     
  33 C33            4.0618    -5.9899    -0.1406 C.2     
  34 O34            5.3395    -6.3947    -0.2892 O.3     
  35 O35            3.1814    -6.8090     0.0374 O.2     
  36 H36           -0.9314     1.9128     0.1168 H       
  37 H37           -0.9142    -0.5469    -0.0315 H       
  38 H38            4.7400     0.4329     1.2017 H       
  39 H39            4.8284     0.5440    -0.5725 H       
  40 H40            6.0581     2.6883    -0.3771 H       
  41 H41            5.9698     2.5773     1.3972 H       
  42 H42            7.1947     0.3872     1.2728 H       
  43 H43            8.3043    -0.2025    -0.8649 H       
  44 H44            6.5332    -0.2031    -1.0430 H       
  45 H45            7.4898     1.1634    -1.6644 H       
  46 H46            8.4084     2.5104     1.6821 H       
  47 H47            9.3993     1.3821     0.7265 H       
  48 H48            8.5848     2.7480    -0.0731 H       
  49 H49           -0.7369     3.7577     0.2453 H       
  50 H50            1.0296     6.0547    -0.1160 H       
  51 H51           -1.1599     5.9666    -1.2765 H       
  52 H52           -0.1944     8.1647    -0.6564 H       
  53 H53           -1.9725     8.2052    -0.5858 H       
  54 H54            1.1184     5.6797     2.3335 H       
  55 H55            0.3059     7.9183     3.0242 H       
  56 H56            1.1361     7.9972     1.4517 H       
  57 H57           -1.0419     4.4812     2.5469 H       
  58 H58           -0.9660     5.8651     3.6637 H       
  59 H59           -3.2443     6.1520     0.0537 H       
  60 H60           -2.3723     4.6487     0.4387 H       
  61 H61           -2.1900     7.9751     3.1233 H       
  62 H62           -3.1379     8.0945     1.6214 H       
  63 H63           -3.1556     5.7770     2.5033 H       
  64 H64           -1.7402    10.0693     1.0444 H       
  65 H65            0.4073    -2.5534     0.0027 H       
  66 H66            3.7464    -1.0334    -0.4472 H       
  67 H67            5.5062    -7.3463    -0.2467 H       
@<TRIPOS>BOND
   1    1    2 ar
   2    1    6 ar
   3    1   36 1
   4    2    3 ar
   5    2   37 1
   6    3    4 ar
   7    3   27 1
   8    4    5 ar
   9    5    6 ar
  10    5    7 1
  11    6   13 1
  12    7    8 1
  13    8    9 1
  14    8   38 1
  15    8   39 1
  16    9   10 1
  17    9   40 1
  18    9   41 1
  19   10   11 1
  20   10   12 1
  21   10   42 1
  22   11   43 1
  23   11   44 1
  24   11   45 1
  25   12   46 1
  26   12   47 1
  27   12   48 1
  28   13   14 2
  29   13   15 am
  30   15   16 1
  31   15   49 1
  32   16   17 1
  33   16   19 1
  34   16   50 1
  35   17   18 1
  36   17   23 1
  37   17   51 1
  38   18   21 1
  39   18   52 1
  40   18   53 1
  41   19   20 1
  42   19   22 1
  43   19   54 1
  44   20   21 1
  45   20   55 1
  46   20   56 1
  47   21   24 1
  48   21   26 1
  49   22   25 1
  50   22   57 1
  51   22   58 1
  52   23   25 1
  53   23   59 1
  54   23   60 1
  55   24   25 1
  56   24   61 1
  57   24   62 1
  58   25   63 1
  59   26   64 1
  60   27   28 1
  61   27   65 1
  62   28   29 1
  63   28   32 2
  64   29   30 2
  65   30   31 1
  66   30   33 1
  67   31   32 1
  68   32   66 1
  69   33   34 1
  70   33   35 2
  71   34   67 1

#	End of record

