#	Name: ASD01840349
#	Creating user name:	WinNT
#	Creation time:	15. 06. 2019 19:37

#	Modifying user name:	WinNT
#	Modification time:	15. 06. 2019 19:37

#	Program:	/corina/corina34_cracker 3.40 0067  02.08.2006

@<TRIPOS>MOLECULE
ASD01840349
  42   46    0    0    0
SMALL
NO_CHARGES


@<TRIPOS>ATOM
   1 C1            -0.1980     1.4991     0.0324 C.3     
   2 C2            -0.1584    -0.0074     0.0217 C.2     
   3 C3            -0.3247    -0.7088    -1.1757 C.2     
   4 N4            -0.5291    -0.3211    -2.4311 N.2     
   5 N5            -0.6175    -1.3595    -3.1858 N.2     
   6 C6            -0.4777    -2.4509    -2.4731 C.2     
   7 N7            -0.2891    -2.0821    -1.1878 N.pl3   
   8 N8            -0.0871    -2.8003    -0.0073 N.2     
   9 C9             0.0725    -2.1796     1.1352 C.2     
  10 S10            0.3429    -2.7588     2.7819 S.3     
  11 C11            0.4164    -1.1646     3.5400 C.2     
  12 C12            0.6224    -0.9065     4.9187 C.2     
  13 O13            0.6543     0.2410     5.3252 O.2     
  14 N14            0.7830    -1.9311     5.7794 N.am    
  15 C15            0.9958    -1.6645     7.2041 C.3     
  16 C16           -0.3461    -1.6530     7.9666 C.3     
  17 C17           -0.0369    -2.2525     9.3217 C.ar    
  18 C18           -0.7515    -2.2080    10.5067 C.ar    
  19 C19           -0.2658    -2.8391    11.6355 C.ar    
  20 C20            0.9373    -3.5173    11.5827 C.ar    
  21 C21            1.6518    -3.5628    10.4013 C.ar    
  22 C22            1.1667    -2.9309     9.2689 C.ar    
  23 C23            1.7480    -2.8335     7.8747 C.3     
  24 C24            0.2403    -0.2258     2.5665 C.2     
  25 N25            0.2477     1.1314     2.8544 N.pl3   
  26 C26            0.0510    -0.7171     1.2106 C.2     
  27 H27            0.7710     1.8857     0.3481 H       
  28 H28           -0.4259     1.8636    -0.9693 H       
  29 H29           -0.9677     1.8374     0.7260 H       
  30 H30           -0.5084    -3.4637    -2.8468 H       
  31 H31            0.7576    -2.8451     5.4556 H       
  32 H32            1.5330    -0.7265     7.3450 H       
  33 H33           -0.7085    -0.6312     8.0789 H       
  34 H34           -1.0837    -2.2614     7.4433 H       
  35 H35           -1.6915    -1.6779    10.5488 H       
  36 H36           -0.8255    -2.8022    12.5585 H       
  37 H37            1.3187    -4.0109    12.4644 H       
  38 H38            2.5918    -4.0930    10.3608 H       
  39 H39            1.5736    -3.7595     7.3267 H       
  40 H40            2.8153    -2.6178     7.9242 H       
  41 H41            0.2543     1.4315     3.7768 H       
  42 H42            0.2462     1.7801     2.1333 H       
@<TRIPOS>BOND
   1    1    2 1
   2    1   27 1
   3    1   28 1
   4    1   29 1
   5    2   26 2
   6    2    3 1
   7    3    7 1
   8    3    4 2
   9    4    5 1
  10    5    6 2
  11    6    7 1
  12    6   30 1
  13    7    8 1
  14    8    9 2
  15    9   26 1
  16    9   10 1
  17   10   11 1
  18   11   12 1
  19   11   24 2
  20   12   13 2
  21   12   14 am
  22   14   15 1
  23   14   31 1
  24   15   23 1
  25   15   16 1
  26   15   32 1
  27   16   17 1
  28   16   33 1
  29   16   34 1
  30   17   22 ar
  31   17   18 ar
  32   18   19 ar
  33   18   35 1
  34   19   20 ar
  35   19   36 1
  36   20   21 ar
  37   20   37 1
  38   21   22 ar
  39   21   38 1
  40   22   23 1
  41   23   39 1
  42   23   40 1
  43   24   25 1
  44   24   26 1
  45   25   41 1
  46   25   42 1

#	End of record

