#	Name: ASD01816537
#	Creating user name:	WinNT
#	Creation time:	15. 06. 2019 19:35

#	Modifying user name:	WinNT
#	Modification time:	15. 06. 2019 19:35

#	Program:	/corina/corina34_cracker 3.40 0067  02.08.2006

@<TRIPOS>MOLECULE
ASD01816537
  63   68    0    0    0
SMALL
NO_CHARGES


@<TRIPOS>ATOM
   1 C1            -0.0019     1.3697     0.0449 C.ar    
   2 C2             0.0195    -0.0156     0.0393 C.ar    
   3 C3             1.2171    -0.7000     0.0203 C.ar    
   4 C4             2.4188    -0.0008     0.0071 C.ar    
   5 C5             2.3935     1.4037     0.0128 C.ar    
   6 C6             1.1797     2.0823     0.0316 C.ar    
   7 N7             3.6240    -0.6816    -0.0110 N.pl3   
   8 C8             4.8144    -0.0606    -0.0243 C.2     
   9 C9             4.9148     1.3085    -0.0209 C.2     
  10 C10            3.6804     2.1260    -0.0015 C.2     
  11 C11            6.0100     2.2732    -0.0326 C.2     
  12 N12            5.4348     3.4951    -0.0212 N.am    
  13 N13            4.0429     3.3758    -0.0026 N.2     
  14 C14            6.1661     4.7646    -0.0264 C.3     
  15 O15            7.2049     2.0256    -0.0489 O.2     
  16 C16            3.5995    -2.1463    -0.0153 C.3     
  17 C17            3.5723    -2.6441    -1.4374 C.ar    
  18 C18            4.7579    -2.8921    -2.1045 C.ar    
  19 C19            4.7362    -3.3479    -3.4081 C.ar    
  20 C20            3.5223    -3.5576    -4.0485 C.ar    
  21 C21            2.3336    -3.3082    -3.3760 C.ar    
  22 C22            2.3617    -2.8574    -2.0707 C.ar    
  23 N23            3.4970    -4.0198    -5.3717 N.pl3   
  24 C24            2.3896    -4.2643    -6.1083 C.2     
  25 C25            2.7922    -4.6948    -7.3264 C.2     
  26 C26            4.1912    -4.7143    -7.3358 C.2     
  27 N27            4.6145    -4.3044    -6.1672 N.2     
  28 C28            5.7795     5.5706    -1.2686 C.3     
  29 C29            6.5717     6.8816    -1.2886 C.3     
  30 N30            6.3509     7.5870    -0.0188 N.am    
  31 C31            6.6053     6.8726     1.2397 C.3     
  32 C32            5.8127     5.5616     1.2313 C.3     
  33 C33            5.9236     8.8652    -0.0085 C.2     
  34 O34            5.8073     9.4757    -1.0535 O.2     
  35 N35            5.6252     9.4666     1.1601 N.am    
  36 C36            5.2691    10.8875     1.1827 C.3     
  37 H37           -0.9464     1.8934     0.0552 H       
  38 H38           -0.9103    -0.5649     0.0502 H       
  39 H39            1.2213    -1.7800     0.0161 H       
  40 H40            1.1620     3.1622     0.0363 H       
  41 H41            5.7168    -0.6539    -0.0378 H       
  42 H42            7.2378     4.5662    -0.0413 H       
  43 H43            4.4900    -2.5261     0.4856 H       
  44 H44            2.7104    -2.4964     0.5093 H       
  45 H45            5.7018    -2.7288    -1.6057 H       
  46 H46            5.6625    -3.5407    -3.9288 H       
  47 H47            1.3878    -3.4701    -3.8717 H       
  48 H48            1.4373    -2.6632    -1.5471 H       
  49 H49            1.3675    -4.1392    -5.7827 H       
  50 H50            2.1474    -4.9739    -8.1466 H       
  51 H51            4.8145    -5.0121    -8.1659 H       
  52 H52            6.0099     4.9926    -2.1636 H       
  53 H53            4.7123     5.7907    -1.2418 H       
  54 H54            7.6334     6.6653    -1.4066 H       
  55 H55            6.2291     7.5030    -2.1161 H       
  56 H56            7.6698     6.6555     1.3278 H       
  57 H57            6.2849     7.4879     2.0804 H       
  58 H58            4.7452     5.7819     1.2346 H       
  59 H59            6.0668     4.9773     2.1157 H       
  60 H60            5.6461     8.9586     1.9862 H       
  61 H61            6.0972    11.4759     0.7877 H       
  62 H62            4.3829    11.0498     0.5692 H       
  63 H63            5.0623    11.1939     2.2081 H       
@<TRIPOS>BOND
   1    1    2 ar
   2    1    6 ar
   3    1   37 1
   4    2    3 ar
   5    2   38 1
   6    3    4 ar
   7    3   39 1
   8    4    5 ar
   9    4    7 1
  10    5    6 ar
  11    5   10 1
  12    6   40 1
  13    7    8 1
  14    7   16 1
  15    8    9 2
  16    8   41 1
  17    9   10 1
  18    9   11 1
  19   10   13 2
  20   11   12 am
  21   11   15 2
  22   12   13 1
  23   12   14 1
  24   14   28 1
  25   14   32 1
  26   14   42 1
  27   16   17 1
  28   16   43 1
  29   16   44 1
  30   17   18 ar
  31   17   22 ar
  32   18   19 ar
  33   18   45 1
  34   19   20 ar
  35   19   46 1
  36   20   21 ar
  37   20   23 1
  38   21   22 ar
  39   21   47 1
  40   22   48 1
  41   23   24 1
  42   23   27 1
  43   24   25 2
  44   24   49 1
  45   25   26 1
  46   25   50 1
  47   26   27 2
  48   26   51 1
  49   28   29 1
  50   28   52 1
  51   28   53 1
  52   29   30 1
  53   29   54 1
  54   29   55 1
  55   30   31 1
  56   30   33 am
  57   31   32 1
  58   31   56 1
  59   31   57 1
  60   32   58 1
  61   32   59 1
  62   33   34 2
  63   33   35 am
  64   35   36 1
  65   35   60 1
  66   36   61 1
  67   36   62 1
  68   36   63 1

#	End of record

