#	Name: ASD01915554
#	Creating user name:	WinNT
#	Creation time:	15. 06. 2019 20:05

#	Modifying user name:	WinNT
#	Modification time:	15. 06. 2019 20:05

#	Program:	/corina/corina34_cracker 3.40 0067  02.08.2006

@<TRIPOS>MOLECULE
ASD01915554
  44   47    0    0    0
SMALL
NO_CHARGES


@<TRIPOS>ATOM
   1 C1            -0.0166     1.3728     0.0096 C.2     
   2 N2             0.0021    -0.0041     0.0020 N.pl3   
   3 C3            -1.2433    -0.7807    -0.0179 C.3     
   4 C4            -2.3411     0.0067     0.6954 C.3     
   5 N5            -2.4044     1.3988     0.2637 N.am    
   6 C6            -1.2813     2.1228     0.0393 C.2     
   7 C7             1.2845     1.7904    -0.0006 C.2     
   8 C8             2.0437     0.6124    -0.0024 C.2     
   9 N9             1.2133    -0.4042     0.0045 N.2     
  10 C10            3.5483     0.5278    -0.0107 C.3     
  11 O11            4.0995     1.8462    -0.0166 O.3     
  12 C12            5.4546     1.9483    -0.0244 C.ar    
  13 O13           -1.3171     3.3271    -0.1281 O.2     
  14 C14            6.0572     3.1979    -0.0305 C.ar    
  15 C15            6.2377     0.8031    -0.0207 C.ar    
  16 C16            7.6150     0.9096    -0.0287 C.ar    
  17 C17            8.2132     2.1561    -0.0405 C.ar    
  18 C18            7.4349     3.2990    -0.0385 C.ar    
  19 C19           -3.6531     1.9998     0.0771 C.ar    
  20 C20           -4.2744     1.9429    -1.1636 C.ar    
  21 C21           -5.5081     2.5373    -1.3444 C.ar    
  22 C22           -6.1242     3.1888    -0.2920 C.ar    
  23 C23           -5.5080     3.2476     0.9448 C.ar    
  24 C24           -4.2775     2.6502     1.1339 C.ar    
  25 C25           -3.6032     1.2340    -2.3116 C.3     
  26 H26           -1.5404    -0.9656    -1.0502 H       
  27 H27           -1.0875    -1.7314     0.4921 H       
  28 H28           -3.3017    -0.4681     0.4954 H       
  29 H29           -2.1536    -0.0209     1.7688 H       
  30 H30            1.6485     2.8071    -0.0064 H       
  31 H31            3.8872    -0.0038     0.8786 H       
  32 H32            3.8771    -0.0075    -0.9014 H       
  33 H33            5.4498     4.0908    -0.0293 H       
  34 H34            5.7710    -0.1708    -0.0111 H       
  35 H35            8.2251     0.0184    -0.0254 H       
  36 H36            9.2901     2.2372    -0.0468 H       
  37 H37            7.9045     4.2715    -0.0481 H       
  38 H38           -5.9918     2.4934    -2.3091 H       
  39 H39           -7.0887     3.6530    -0.4361 H       
  40 H40           -5.9918     3.7575     1.7648 H       
  41 H41           -3.7968     2.6966     2.1000 H       
  42 H42           -3.9032     0.1861    -2.3169 H       
  43 H43           -3.8995     1.7015    -3.2506 H       
  44 H44           -2.5212     1.3015    -2.1976 H       
@<TRIPOS>BOND
   1    1    2 1
   2    1    7 2
   3    1    6 1
   4    2    3 1
   5    2    9 1
   6    3    4 1
   7    3   26 1
   8    3   27 1
   9    4    5 1
  10    4   28 1
  11    4   29 1
  12    5    6 am
  13    5   19 1
  14    6   13 2
  15    7    8 1
  16    7   30 1
  17    8    9 2
  18    8   10 1
  19   10   11 1
  20   10   31 1
  21   10   32 1
  22   11   12 1
  23   12   14 ar
  24   12   15 ar
  25   14   18 ar
  26   14   33 1
  27   15   16 ar
  28   15   34 1
  29   16   17 ar
  30   16   35 1
  31   17   18 ar
  32   17   36 1
  33   18   37 1
  34   19   20 ar
  35   19   24 ar
  36   20   21 ar
  37   20   25 1
  38   21   22 ar
  39   21   38 1
  40   22   23 ar
  41   22   39 1
  42   23   24 ar
  43   23   40 1
  44   24   41 1
  45   25   42 1
  46   25   43 1
  47   25   44 1

#	End of record

