#	Name: ASD01881864
#	Creating user name:	WinNT
#	Creation time:	15. 06. 2019 19:43

#	Modifying user name:	WinNT
#	Modification time:	15. 06. 2019 19:43

#	Program:	/corina/corina34_cracker 3.40 0067  02.08.2006

@<TRIPOS>MOLECULE
ASD01881864
  41   45    0    0    0
SMALL
NO_CHARGES


@<TRIPOS>ATOM
   1 N1            -0.0154     1.2839     0.0091 N.pl3   
   2 N2             0.0021    -0.0041     0.0020 N.2     
   3 N3             1.2033    -0.4649    -0.0119 N.2     
   4 C4             2.0741     0.5645    -0.0147 C.ar    
   5 C5             1.2843     1.7298    -0.0009 C.ar    
   6 C6             3.4670     0.6759    -0.0271 C.ar    
   7 C7             4.0484     1.9285    -0.0255 C.ar    
   8 C8             3.2560     3.0739    -0.0118 C.ar    
   9 C9             1.8924     2.9784    -0.0004 C.ar    
  10 O10            5.4033     2.0444    -0.0370 O.3     
  11 C11            5.9411     3.3683    -0.0346 C.3     
  12 C12            9.5790     3.8471    -0.0647 C.2     
  13 C13           10.6848     4.7209    -0.0694 C.2     
  14 C14           10.4724     6.0644    -0.0598 C.2     
  15 C15            9.1585     6.5611    -0.0453 C.2     
  16 C16            8.1096     5.7119    -0.0406 C.2     
  17 N17            8.3085     4.3617    -0.0505 N.pl3   
  18 N18            9.4862     2.5248    -0.0661 N.2     
  19 C19            8.1975     2.1760    -0.0591 C.2     
  20 C20            7.4465     3.2990    -0.0485 C.2     
  21 C21           -1.2133     2.1272     0.0196 C.3     
  22 C22           -1.6228     2.4135     1.4657 C.3     
  23 C23           -2.7884     3.3784     1.6921 C.3     
  24 C24           -2.9777     1.8797     1.9352 C.3     
  25 Br25           4.5472    -0.8761    -0.0451 Br      
  26 H26            3.7236     4.0474    -0.0103 H       
  27 H27            1.2882     3.8735     0.0099 H       
  28 H28            5.5939     3.9031    -0.9187 H       
  29 H29            5.6098     3.8935     0.8612 H       
  30 H30           11.6906     4.3277    -0.0803 H       
  31 H31           11.3100     6.7461    -0.0629 H       
  32 H32            8.9869     7.6273    -0.0376 H       
  33 H33            7.1035     6.1044    -0.0291 H       
  34 H34            7.8185     1.1646    -0.0584 H       
  35 H35           -1.0007     3.0667    -0.4906 H       
  36 H36           -2.0254     1.6113    -0.4926 H       
  37 H37           -0.8089     2.4286     2.1906 H       
  38 H38           -2.7415     4.0280     2.5661 H       
  39 H39           -3.2635     3.8093     0.8108 H       
  40 H40           -3.5773     1.3246     1.2137 H       
  41 H41           -3.0553     1.5434     2.9691 H       
@<TRIPOS>BOND
   1    1    2 1
   2    1    5 1
   3    1   21 1
   4    2    3 2
   5    3    4 1
   6    4    5 ar
   7    4    6 ar
   8    5    9 ar
   9    6    7 ar
  10    6   25 1
  11    7    8 ar
  12    7   10 1
  13    8    9 ar
  14    8   26 1
  15    9   27 1
  16   10   11 1
  17   11   20 1
  18   11   28 1
  19   11   29 1
  20   12   13 1
  21   12   17 1
  22   12   18 2
  23   13   14 2
  24   13   30 1
  25   14   15 1
  26   14   31 1
  27   15   16 2
  28   15   32 1
  29   16   17 1
  30   16   33 1
  31   17   20 1
  32   18   19 1
  33   19   20 2
  34   19   34 1
  35   21   22 1
  36   21   35 1
  37   21   36 1
  38   22   23 1
  39   22   24 1
  40   22   37 1
  41   23   24 1
  42   23   38 1
  43   23   39 1
  44   24   40 1
  45   24   41 1

#	End of record

