#	Name: ASD08170184
#	Creating user name:	WinNT
#	Creation time:	15. 06. 2019 21:17

#	Modifying user name:	WinNT
#	Modification time:	15. 06. 2019 21:17

#	Program:	/corina/corina34_cracker 3.40 0067  02.08.2006

@<TRIPOS>MOLECULE
ASD08170184
  75   77    0    0    0
SMALL
NO_CHARGES


@<TRIPOS>ATOM
   1 N1            -1.5494    -0.5666     0.9382 N.2     
   2 N2            -1.2452    -1.7843     0.8017 N.2     
   3 C3            -0.5804     0.2979     0.9629 C.2     
   4 S4             0.9053    -0.5375     0.7915 S.3     
   5 C5             0.0165    -2.0583     0.6983 C.2     
   6 C6             0.6172    -3.4301     0.5299 C.3     
   7 C7             0.7342    -3.7561    -0.9604 C.3     
   8 S8             1.4573    -5.4074    -1.1632 S.3     
   9 C9             1.5142    -5.6094    -2.9650 C.3     
  10 C10            2.1099    -6.9768    -3.3063 C.3     
  11 C11            2.1572    -7.1447    -4.8032 C.2     
  12 N12            3.1385    -6.8089    -5.5790 N.2     
  13 S13            0.8891    -7.8407    -5.8126 S.3     
  14 C14            1.8689    -7.5757    -7.1926 C.2     
  15 N15            2.9855    -7.0320    -6.8121 N.2     
  16 N16            1.5277    -7.8949    -8.5025 N.am    
  17 C17            2.3894    -7.6352    -9.5057 C.2     
  18 O18            3.4237    -7.0438    -9.2789 O.2     
  19 C19            2.0677    -8.0796   -10.9093 C.3     
  20 N20           -0.7250     1.6738     1.1049 N.am    
  21 C21           -1.9537     2.2127     1.2325 C.2     
  22 O22           -2.9334     1.4977     1.2234 O.2     
  23 C23           -2.1104     3.7036     1.3864 C.3     
  24 C24           -3.5731     4.0449     1.5092 C.ar    
  25 C25           -4.1710     4.0864     2.7549 C.ar    
  26 C26           -4.3156     4.3221     0.3766 C.ar    
  27 C27           -5.6573     4.6353     0.4892 C.ar    
  28 C28           -6.2566     4.6707     1.7344 C.ar    
  29 C29           -5.5127     4.3994     2.8675 C.ar    
  30 C30            1.2664    -6.9866   -11.6193 C.3     
  31 C31            0.9898    -7.4129   -13.0624 C.3     
  32 C32           -0.0602    -6.7704   -10.8882 C.3     
  33 N33            3.3128    -8.3256   -11.6411 N.am    
  34 C34            3.3234    -9.1768   -12.6860 C.2     
  35 O35            4.4676    -9.4029   -13.3585 O.3     
  36 O36            2.3002    -9.7401   -13.0211 O.2     
  37 C37            4.4048   -10.3316   -14.4729 C.3     
  38 C38            3.4117    -9.8121   -15.5144 C.3     
  39 C39            5.7904   -10.4596   -15.1089 C.3     
  40 C40            3.9461   -11.7018   -13.9697 C.3     
  41 H41            1.6073    -3.4516     0.9853 H       
  42 H42           -0.0217    -4.1685     1.0143 H       
  43 H43           -0.2559    -3.7346    -1.4159 H       
  44 H44            1.3731    -3.0177    -1.4448 H       
  45 H45            0.5046    -5.5416    -3.3703 H       
  46 H46            2.1336    -4.8247    -3.3993 H       
  47 H47            3.1195    -7.0446    -2.9010 H       
  48 H48            1.4905    -7.7616    -2.8720 H       
  49 H49            0.6695    -8.3045    -8.6940 H       
  50 H50            1.4796    -8.9966   -10.8743 H       
  51 H51            0.0585     2.2456     1.1122 H       
  52 H52           -1.5839     4.0337     2.2819 H       
  53 H53           -1.6924     4.2049     0.5135 H       
  54 H54           -3.5899     3.8738     3.6401 H       
  55 H55           -3.8474     4.2944    -0.5962 H       
  56 H56           -6.2372     4.8525    -0.3956 H       
  57 H57           -7.3048     4.9157     1.8224 H       
  58 H58           -5.9809     4.4272     3.8403 H       
  59 H59            1.8375    -6.0582   -11.6178 H       
  60 H60            0.4186    -8.3412   -13.0640 H       
  61 H61            0.4189    -6.6342   -13.5682 H       
  62 H62            1.9348    -7.5669   -13.5833 H       
  63 H63            0.1337    -6.3591    -9.8976 H       
  64 H64           -0.6787    -6.0750   -11.4557 H       
  65 H65           -0.5807    -7.7231   -10.7906 H       
  66 H66            4.1296    -7.8760   -11.3735 H       
  67 H67            3.7385    -8.8360   -15.8728 H       
  68 H68            3.3645   -10.5093   -16.3509 H       
  69 H69            2.4245    -9.7209   -15.0613 H       
  70 H70            6.4980   -10.8297   -14.3669 H       
  71 H71            5.7433   -11.1568   -15.9454 H       
  72 H72            6.1173    -9.4835   -15.4673 H       
  73 H73            2.9589   -11.6106   -13.5166 H       
  74 H74            3.8989   -12.3989   -14.8063 H       
  75 H75            4.6536   -12.0719   -13.2277 H       
@<TRIPOS>BOND
   1    1    2 1
   2    1    3 2
   3    2    5 2
   4    3    4 1
   5    3   20 1
   6    4    5 1
   7    5    6 1
   8    6    7 1
   9    6   41 1
  10    6   42 1
  11    7    8 1
  12    7   43 1
  13    7   44 1
  14    8    9 1
  15    9   10 1
  16    9   45 1
  17    9   46 1
  18   10   11 1
  19   10   47 1
  20   10   48 1
  21   11   12 2
  22   11   13 1
  23   12   15 1
  24   13   14 1
  25   14   15 2
  26   14   16 1
  27   16   17 am
  28   16   49 1
  29   17   18 2
  30   17   19 1
  31   19   30 1
  32   19   33 1
  33   19   50 1
  34   20   21 am
  35   20   51 1
  36   21   22 2
  37   21   23 1
  38   23   24 1
  39   23   52 1
  40   23   53 1
  41   24   25 ar
  42   24   26 ar
  43   25   29 ar
  44   25   54 1
  45   26   27 ar
  46   26   55 1
  47   27   28 ar
  48   27   56 1
  49   28   29 ar
  50   28   57 1
  51   29   58 1
  52   30   31 1
  53   30   32 1
  54   30   59 1
  55   31   60 1
  56   31   61 1
  57   31   62 1
  58   32   63 1
  59   32   64 1
  60   32   65 1
  61   33   34 am
  62   33   66 1
  63   34   35 1
  64   34   36 2
  65   35   37 1
  66   37   38 1
  67   37   39 1
  68   37   40 1
  69   38   67 1
  70   38   68 1
  71   38   69 1
  72   39   70 1
  73   39   71 1
  74   39   72 1
  75   40   73 1
  76   40   74 1
  77   40   75 1

#	End of record

