#	Name: ASD03091723
#	Creating user name:	WinNT
#	Creation time:	15. 06. 2019 20:31

#	Modifying user name:	WinNT
#	Modification time:	15. 06. 2019 20:31

#	Program:	/corina/corina34_cracker 3.40 0067  02.08.2006

@<TRIPOS>MOLECULE
ASD03091723
  39   42    0    0    0
SMALL
NO_CHARGES


@<TRIPOS>ATOM
   1 C1            -0.0188     1.5354     0.0105 C.3     
   2 C2             0.0021    -0.0041     0.0020 C.3     
   3 N3             0.0279    -0.4602     1.4021 N.3     
   4 C4             0.0781     0.7235     2.2834 C.3     
   5 C5            -0.5170     1.8802     1.4507 C.3     
   6 C6             0.2659     3.1734     1.7649 C.3     
   7 N7             1.5706     3.0168     1.1019 N.am    
   8 C8             1.4290     2.0576    -0.0005 C.3     
   9 C9             2.7084     3.6502     1.4495 C.2     
  10 O10            2.7100     4.4286     2.3848 O.2     
  11 C11            3.9448     3.4011     0.7002 C.2     
  12 C12            5.1570     3.9737     0.9477 C.2     
  13 O13            4.0779     2.5620    -0.3475 O.3     
  14 C14            5.3429     2.5841    -0.7844 C.2     
  15 C15            6.0550     3.4495    -0.0093 C.2     
  16 C16            7.4967     3.7779    -0.1439 C.ar    
  17 C17            8.2603     3.1768    -1.1420 C.ar    
  18 C18            9.6001     3.4857    -1.2627 C.ar    
  19 C19           10.1848     4.3902    -0.3949 C.ar    
  20 C20            9.4312     4.9899     0.5979 C.ar    
  21 C21            8.0892     4.6925     0.7238 C.ar    
  22 H22           -0.6324     1.9593    -0.7844 H       
  23 H23           -0.8919    -0.3828    -0.4934 H       
  24 H24            0.8918    -0.3585    -0.5184 H       
  25 H25           -0.7764    -1.0325     1.6108 H       
  26 H26           -0.5221     0.5543     3.1774 H       
  27 H27            1.1093     0.9470     2.5570 H       
  28 H28           -1.5995     1.9734     1.5378 H       
  29 H29           -0.2598     4.0393     1.3624 H       
  30 H30            0.4006     3.2803     2.8412 H       
  31 H31            2.1216     1.2279     0.1411 H       
  32 H32            1.6353     2.5530    -0.9493 H       
  33 H33            5.3862     4.6891     1.7236 H       
  34 H34            5.7344     2.0099    -1.6110 H       
  35 H35            7.8048     2.4702    -1.8200 H       
  36 H36           10.1931     3.0200    -2.0360 H       
  37 H37           11.2336     4.6288    -0.4926 H       
  38 H38            9.8926     5.6954     1.2729 H       
  39 H39            7.5017     5.1613     1.4993 H       
@<TRIPOS>BOND
   1    1    2 1
   2    1    8 1
   3    1    5 1
   4    1   22 1
   5    2    3 1
   6    2   23 1
   7    2   24 1
   8    3    4 1
   9    3   25 1
  10    4    5 1
  11    4   26 1
  12    4   27 1
  13    5    6 1
  14    5   28 1
  15    6    7 1
  16    6   29 1
  17    6   30 1
  18    7    8 1
  19    7    9 am
  20    8   31 1
  21    8   32 1
  22    9   10 2
  23    9   11 1
  24   11   12 2
  25   11   13 1
  26   12   15 1
  27   12   33 1
  28   13   14 1
  29   14   15 2
  30   14   34 1
  31   15   16 1
  32   16   17 ar
  33   16   21 ar
  34   17   18 ar
  35   17   35 1
  36   18   19 ar
  37   18   36 1
  38   19   20 ar
  39   19   37 1
  40   20   21 ar
  41   20   38 1
  42   21   39 1

#	End of record

