#	Name: ASD01411096
#	Creating user name:	WinNT
#	Creation time:	15. 06. 2019 19:19

#	Modifying user name:	WinNT
#	Modification time:	15. 06. 2019 19:19

#	Program:	/corina/corina34_cracker 3.40 0067  02.08.2006

@<TRIPOS>MOLECULE
ASD01411096
  40   42    0    0    0
SMALL
NO_CHARGES


@<TRIPOS>ATOM
   1 C1             0.0781     1.5751     0.5580 C.2     
   2 C2             0.0921     0.1474     0.7803 C.ar    
   3 C3             1.3444     1.9455     0.2564 C.2     
   4 C4            -1.0708     2.5493     0.6309 C.3     
   5 C5             1.4367    -0.2639     0.5873 C.ar    
   6 C6            -0.9063    -0.7739     1.1166 C.ar    
   7 C7             1.7259     3.3760    -0.0442 C.3     
   8 N8             2.1630     0.8504     0.2728 N.pl3   
   9 C9            -0.4833     3.9664     0.6989 C.3     
  10 C10            1.7989    -1.6025     0.7280 C.ar    
  11 C11           -0.5179    -2.0955     1.2496 C.ar    
  12 Cl12          -2.5539    -0.2820     1.3559 Cl      
  13 O13            0.5253     4.1137    -0.3046 O.3     
  14 C14            2.4525     3.9802     1.1591 C.3     
  15 C15            2.6368     3.4201    -1.2727 C.3     
  16 C16            0.7944    -2.4962     1.0608 C.ar    
  17 Cl17           3.4374    -2.1268     0.4956 Cl      
  18 C18            1.9000     2.8654    -2.4645 C.2     
  19 H19            3.1153     0.8625     0.0888 H       
  20 O20            0.7322     2.5706    -2.3692 O.2     
  21 O21            2.5411     2.6990    -3.6320 O.3     
  22 H22            2.0268     2.3400    -4.3680 H       
  23 O23            3.3802     6.0369     2.0252 O.3     
  24 C24            2.8087     5.4379     0.8605 C.3     
  25 C25            3.7504     7.4063     1.8525 C.3     
  26 H26           -1.6947     2.4509    -0.2574 H       
  27 H27           -1.6648     2.3530     1.5234 H       
  28 H28           -1.2749     4.6964     0.5300 H       
  29 H29           -0.0419     4.1299     1.6820 H       
  30 H30           -1.2599    -2.8363     1.5086 H       
  31 H31            1.8043     3.9366     2.0344 H       
  32 H32            3.3645     3.4159     1.3538 H       
  33 H33            2.9273     4.4514    -1.4728 H       
  34 H34            3.5283     2.8213    -1.0857 H       
  35 H35            1.0429    -3.5408     1.1770 H       
  36 H36            3.5278     5.4759     0.0423 H       
  37 H37            1.9073     5.9816     0.5774 H       
  38 H38            4.1759     7.7875     2.7808 H       
  39 H39            4.4891     7.4851     1.0549 H       
  40 H40            2.8685     7.9907     1.5901 H       
@<TRIPOS>BOND
   1    1    2 1
   2    1    3 2
   3    1    4 1
   4    2    5 ar
   5    2    6 ar
   6    3    7 1
   7    3    8 1
   8    4    9 1
   9    4   26 1
  10    4   27 1
  11    5   10 ar
  12    5    8 1
  13    6   11 ar
  14    6   12 1
  15    7   14 1
  16    7   15 1
  17    7   13 1
  18    8   19 1
  19    9   13 1
  20    9   28 1
  21    9   29 1
  22   10   16 ar
  23   10   17 1
  24   11   16 ar
  25   11   30 1
  26   14   24 1
  27   14   31 1
  28   14   32 1
  29   15   18 1
  30   15   33 1
  31   15   34 1
  32   16   35 1
  33   18   20 2
  34   18   21 1
  35   21   22 1
  36   23   24 1
  37   23   25 1
  38   24   36 1
  39   24   37 1
  40   25   38 1
  41   25   39 1
  42   25   40 1

#	End of record

