#	Name: ASD01813776
#	Creating user name:	WinNT
#	Creation time:	15. 06. 2019 19:31

#	Modifying user name:	WinNT
#	Modification time:	15. 06. 2019 19:31

#	Program:	/corina/corina34_cracker 3.40 0067  02.08.2006

@<TRIPOS>MOLECULE
ASD01813776
  46   49    0    0    0
SMALL
NO_CHARGES


@<TRIPOS>ATOM
   1 C1             0.0961     1.4749     0.3444 C.ar    
   2 C2             0.0783     0.0877     0.3366 C.ar    
   3 C3             1.2490    -0.6310     0.2099 C.ar    
   4 C4             2.4665     0.0381     0.0878 C.ar    
   5 C5             2.4797     1.4428     0.0961 C.ar    
   6 C6             1.2876     2.1556     0.2251 C.ar    
   7 N7             3.6441    -0.6677    -0.0385 N.pl3   
   8 C8             4.8374    -0.0726    -0.1572 C.2     
   9 C9             4.9773     1.3008    -0.1617 C.2     
  10 C10            3.7739     2.1383    -0.0338 C.2     
  11 O11            3.8440     3.3548    -0.0326 O.2     
  12 C12            6.3055     1.9162    -0.2931 C.2     
  13 O13            6.4290     3.2586    -0.2962 O.3     
  14 O14            7.2926     1.2147    -0.3989 O.2     
  15 C15            3.5871    -2.1316    -0.0427 C.3     
  16 C16            3.4445    -2.6248    -1.4595 C.ar    
  17 C17            4.5577    -2.7727    -2.2734 C.ar    
  18 N18            4.3983    -3.2076    -3.5115 N.ar    
  19 C19            3.1913    -3.5009    -3.9769 C.ar    
  20 N20            2.1068    -3.3703    -3.2243 N.ar    
  21 C21            2.1980    -2.9458    -1.9758 C.ar    
  22 F22            1.2162    -1.9816     0.2044 F       
  23 C23            3.0511    -3.9853    -5.3704 C.ar    
  24 C24            1.7904    -4.2988    -5.8777 C.ar    
  25 C25            1.6632    -4.7487    -7.1744 C.ar    
  26 C26            2.7889    -4.8904    -7.9754 C.ar    
  27 C27            4.0458    -4.5795    -7.4730 C.ar    
  28 C28            4.1789    -4.1232    -6.1791 C.ar    
  29 O29            2.6604    -5.3344    -9.2525 O.3     
  30 C30            3.8592    -5.4567   -10.0205 C.3     
  31 H31           -0.8291     2.0238     0.4398 H       
  32 H32           -0.8620    -0.4351     0.4312 H       
  33 H33            1.2988     3.2355     0.2310 H       
  34 H34            5.7202    -0.6875    -0.2521 H       
  35 H35            7.3227     3.6170    -0.3850 H       
  36 H36            4.5034    -2.5321     0.3910 H       
  37 H37            2.7315    -2.4636     0.5454 H       
  38 H38            5.5430    -2.5352    -1.9002 H       
  39 H39            1.3114    -2.8419    -1.3678 H       
  40 H40            0.9147    -4.1895    -5.2551 H       
  41 H41            0.6871    -4.9916    -7.5678 H       
  42 H42            4.9194    -4.6911    -8.0982 H       
  43 H43            5.1566    -3.8816    -5.7890 H       
  44 H44            4.5333    -6.1605    -9.5322 H       
  45 H45            3.6156    -5.8200   -11.0189 H       
  46 H46            4.3431    -4.4830   -10.0963 H       
@<TRIPOS>BOND
   1    1    2 ar
   2    1    6 ar
   3    1   31 1
   4    2    3 ar
   5    2   32 1
   6    3   22 1
   7    3    4 ar
   8    4    5 ar
   9    4    7 1
  10    5    6 ar
  11    5   10 1
  12    6   33 1
  13    7    8 1
  14    7   15 1
  15    8    9 2
  16    8   34 1
  17    9   10 1
  18    9   12 1
  19   10   11 2
  20   12   13 1
  21   12   14 2
  22   13   35 1
  23   15   16 1
  24   15   36 1
  25   15   37 1
  26   16   17 ar
  27   16   21 ar
  28   17   18 ar
  29   17   38 1
  30   18   19 ar
  31   19   20 ar
  32   19   23 1
  33   20   21 ar
  34   21   39 1
  35   23   24 ar
  36   23   28 ar
  37   24   25 ar
  38   24   40 1
  39   25   26 ar
  40   25   41 1
  41   26   27 ar
  42   26   29 1
  43   27   28 ar
  44   27   42 1
  45   28   43 1
  46   29   30 1
  47   30   44 1
  48   30   45 1
  49   30   46 1

#	End of record

