#	Name: ASD03330821
#	Creating user name:	WinNT
#	Creation time:	15. 06. 2019 20:38

#	Modifying user name:	WinNT
#	Modification time:	15. 06. 2019 20:38

#	Program:	/corina/corina34_cracker 3.40 0067  02.08.2006

@<TRIPOS>MOLECULE
ASD03330821
  63   65    0    0    0
SMALL
NO_CHARGES


@<TRIPOS>ATOM
   1 C1            -0.2620     1.1479     0.9711 C.2     
   2 N2            -0.2845    -0.1939     1.1884 N.pl3   
   3 C3             1.0436     1.5348     0.9913 C.2     
   4 N4             1.7969     0.4331     1.2011 N.2     
   5 C5             1.0085    -0.6100     1.3149 C.2     
   6 C6             1.4486    -2.0039     1.5418 C.ar    
   7 C7             1.5451     2.9092     0.8149 C.2     
   8 O8             0.7635     3.8227     0.6308 O.2     
   9 N9             2.8697     3.1539     0.8575 N.am    
  10 C10           -1.4917    -1.0197     1.2807 C.3     
  11 C11           -2.4265    -0.6747     0.1172 C.3     
  12 C12           -3.3303     0.4896     0.5096 C.3     
  13 N13           -2.6336     1.4212     1.3987 N.3     
  14 C14           -1.4667     2.0216     0.7352 C.3     
  15 C15            0.6218    -2.8966     2.2245 C.ar    
  16 C16            1.0368    -4.1953     2.4335 C.ar    
  17 C17            2.2727    -4.6138     1.9671 C.ar    
  18 C18            3.0980    -3.7308     1.2886 C.ar    
  19 C19            2.6897    -2.4322     1.0686 C.ar    
  20 C20            3.3683     4.5202     0.6822 C.3     
  21 C21            4.7121     4.6543     1.3508 C.2     
  22 C22            3.5089     4.8241    -0.8107 C.3     
  23 C23            2.1259     4.8164    -1.4652 C.3     
  24 C24            4.1515     6.2007    -0.9927 C.3     
  25 C25            4.3898     3.7593    -1.4672 C.3     
  26 O26            5.3080     3.6641     1.7185 O.2     
  27 N27            5.2518     5.8747     1.5403 N.am    
  28 C28            6.5893     6.0016     2.1244 C.3     
  29 C29           -3.5478     2.4581     1.8958 C.3     
  30 C30            4.4410    -4.1926     0.7845 C.3     
  31 F31            2.6747    -5.8868     2.1747 F       
  32 F32            5.0858    -3.1330     0.1375 F       
  33 F33            5.2206    -4.6243     1.8629 F       
  34 F34            4.2633    -5.2493    -0.1150 F       
  35 H35            3.4930     2.4253     1.0043 H       
  36 H36           -1.2173    -2.0733     1.2275 H       
  37 H37           -1.9975    -0.8212     2.2256 H       
  38 H38           -1.8334    -0.3956    -0.7537 H       
  39 H39           -3.0388    -1.5431    -0.1256 H       
  40 H40           -3.6420     1.0196    -0.3904 H       
  41 H41           -4.2126     0.1016     1.0186 H       
  42 H42           -1.2836     3.0139     1.1474 H       
  43 H43           -1.6563     2.0996    -0.3353 H       
  44 H44           -0.3413    -2.5711     2.5891 H       
  45 H45            0.3976    -4.8871     2.9620 H       
  46 H46            3.3333    -1.7450     0.5395 H       
  47 H47            2.6670     5.2233     1.1316 H       
  48 H48            1.4984     5.5750    -0.9975 H       
  49 H49            2.2261     5.0329    -2.5288 H       
  50 H50            1.6681     3.8357    -1.3356 H       
  51 H51            5.1221     6.2169    -0.4969 H       
  52 H52            4.2830     6.4026    -2.0557 H       
  53 H53            3.5071     6.9632    -0.5550 H       
  54 H54            3.9320     2.7786    -1.3376 H       
  55 H55            4.4899     3.9758    -2.5308 H       
  56 H56            5.3750     3.7648    -1.0009 H       
  57 H57            4.7546     6.6691     1.2899 H       
  58 H58            7.3128     5.4893     1.4902 H       
  59 H59            6.8544     7.0562     2.1995 H       
  60 H60            6.5958     5.5536     3.1181 H       
  61 H61           -4.3619     1.9898     2.4489 H       
  62 H62           -3.0046     3.1364     2.5536 H       
  63 H63           -3.9553     3.0173     1.0535 H       
@<TRIPOS>BOND
   1    1    2 1
   2    1    3 2
   3    1   14 1
   4    2   10 1
   5    2    5 1
   6    3    4 1
   7    3    7 1
   8    4    5 2
   9    5    6 1
  10    6   15 ar
  11    6   19 ar
  12    7    8 2
  13    7    9 am
  14    9   20 1
  15    9   35 1
  16   10   11 1
  17   10   36 1
  18   10   37 1
  19   11   12 1
  20   11   38 1
  21   11   39 1
  22   12   13 1
  23   12   40 1
  24   12   41 1
  25   13   14 1
  26   13   29 1
  27   14   42 1
  28   14   43 1
  29   15   16 ar
  30   15   44 1
  31   16   17 ar
  32   16   45 1
  33   17   18 ar
  34   17   31 1
  35   18   19 ar
  36   18   30 1
  37   19   46 1
  38   20   21 1
  39   20   22 1
  40   20   47 1
  41   21   26 2
  42   21   27 am
  43   22   23 1
  44   22   24 1
  45   22   25 1
  46   23   48 1
  47   23   49 1
  48   23   50 1
  49   24   51 1
  50   24   52 1
  51   24   53 1
  52   25   54 1
  53   25   55 1
  54   25   56 1
  55   27   28 1
  56   27   57 1
  57   28   58 1
  58   28   59 1
  59   28   60 1
  60   29   61 1
  61   29   62 1
  62   29   63 1
  63   30   32 1
  64   30   33 1
  65   30   34 1

#	End of record

