#	Name: ASD04992001
#	Creating user name:	WinNT
#	Creation time:	15. 06. 2019 20:56

#	Modifying user name:	WinNT
#	Modification time:	15. 06. 2019 20:56

#	Program:	/corina/corina34_cracker 3.40 0067  02.08.2006

@<TRIPOS>MOLECULE
ASD04992001
  60   63    0    0    0
SMALL
NO_CHARGES


@<TRIPOS>ATOM
   1 C1            -0.9115     0.4027     0.3904 C.3     
   2 C2            -0.5903    -1.0773     0.1727 C.3     
   3 C3             0.1551    -1.2479    -1.1525 C.3     
   4 C4             1.4563    -0.4441    -1.1129 C.3     
   5 C5             1.1351     1.0359    -0.8952 C.3     
   6 C6             0.3898     1.2065     0.4300 C.3     
   7 C7             0.4763    -2.7279    -1.3701 C.3     
   8 C8             1.0732    -2.9161    -2.7410 C.ar    
   9 C9             2.3143    -3.5186    -2.8690 C.ar    
  10 C10            2.8595    -3.6901    -4.1320 C.ar    
  11 C11            2.1371    -3.2490    -5.2293 C.ar    
  12 C12            0.8948    -2.6517    -5.0260 C.ar    
  13 N13            0.4065    -2.5110    -3.7999 N.ar    
  14 C14            0.1101    -2.1748    -6.1883 C.2     
  15 N15           -1.1339    -1.6889    -6.0079 N.am    
  16 O16            0.5881    -2.2218    -7.3046 O.2     
  17 C17           -1.9025    -1.3159    -7.1083 C.ar    
  18 C18           -1.5872    -1.8040    -8.3727 C.ar    
  19 C19           -2.3445    -1.4375    -9.4623 C.ar    
  20 C20           -3.4316    -0.5743    -9.2973 C.ar    
  21 C21           -3.7459    -0.0861    -8.0252 C.ar    
  22 C22           -2.9875    -0.4604    -6.9396 C.ar    
  23 C23           -3.3257     0.0648    -5.5682 C.3     
  24 C24           -2.4904     1.2849    -5.2775 C.ar    
  25 C25           -2.9826     2.5442    -5.5654 C.ar    
  26 C26           -2.2164     3.6634    -5.2988 C.ar    
  27 C27           -0.9581     3.5234    -4.7438 C.ar    
  28 C28           -0.4662     2.2642    -4.4551 C.ar    
  29 C29           -1.2342     1.1452    -4.7177 C.ar    
  30 C30           -4.2448    -0.1791   -10.4622 C.2     
  31 O31           -3.9403    -0.6501   -11.6874 O.3     
  32 O32           -5.1895     0.5712   -10.3172 O.2     
  33 H33           -1.5363     0.7629    -0.4269 H       
  34 H34           -1.4425     0.5242     1.3345 H       
  35 H35            0.0345    -1.4375     0.9900 H       
  36 H36           -1.5173    -1.6499     0.1445 H       
  37 H37           -0.4698    -0.8877    -1.9698 H       
  38 H38            2.0812    -0.8043    -0.2956 H       
  39 H39            1.9873    -0.5656    -2.0570 H       
  40 H40            2.0622     1.6085    -0.8670 H       
  41 H41            0.5103     1.3961    -1.7125 H       
  42 H42            0.1610     2.2609     0.5850 H       
  43 H43            1.0146     0.8463     1.2473 H       
  44 H44            1.1887    -3.0599    -0.6149 H       
  45 H45           -0.4391    -3.3141    -1.2888 H       
  46 H46            2.8519    -3.8510    -1.9933 H       
  47 H47            3.8254    -4.1566    -4.2580 H       
  48 H48            2.5316    -3.3662    -6.2279 H       
  49 H49           -1.4942    -1.5988    -5.1118 H       
  50 H50           -0.7471    -2.4708    -8.4995 H       
  51 H51           -2.0988    -1.8161   -10.4435 H       
  52 H52           -4.5851     0.5809    -7.8943 H       
  53 H53           -4.3822     0.3305    -5.5312 H       
  54 H54           -3.1180    -0.7036    -4.8235 H       
  55 H55           -3.9657     2.6535    -5.9990 H       
  56 H56           -2.6006     4.6472    -5.5244 H       
  57 H57           -0.3591     4.3978    -4.5362 H       
  58 H58            0.5170     2.1548    -4.0218 H       
  59 H59           -0.8499     0.1614    -4.4921 H       
  60 H60           -4.5022    -0.3631   -12.4202 H       
@<TRIPOS>BOND
   1    1    2 1
   2    1    6 1
   3    1   33 1
   4    1   34 1
   5    2    3 1
   6    2   35 1
   7    2   36 1
   8    3    4 1
   9    3    7 1
  10    3   37 1
  11    4    5 1
  12    4   38 1
  13    4   39 1
  14    5    6 1
  15    5   40 1
  16    5   41 1
  17    6   42 1
  18    6   43 1
  19    7    8 1
  20    7   44 1
  21    7   45 1
  22    8    9 ar
  23    8   13 ar
  24    9   10 ar
  25    9   46 1
  26   10   11 ar
  27   10   47 1
  28   11   12 ar
  29   11   48 1
  30   12   13 ar
  31   12   14 1
  32   14   15 am
  33   14   16 2
  34   15   17 1
  35   15   49 1
  36   17   18 ar
  37   17   22 ar
  38   18   19 ar
  39   18   50 1
  40   19   20 ar
  41   19   51 1
  42   20   21 ar
  43   20   30 1
  44   21   22 ar
  45   21   52 1
  46   22   23 1
  47   23   24 1
  48   23   53 1
  49   23   54 1
  50   24   25 ar
  51   24   29 ar
  52   25   26 ar
  53   25   55 1
  54   26   27 ar
  55   26   56 1
  56   27   28 ar
  57   27   57 1
  58   28   29 ar
  59   28   58 1
  60   29   59 1
  61   30   31 1
  62   30   32 2
  63   31   60 1

#	End of record

