#	Name: ASD01883092
#	Creating user name:	WinNT
#	Creation time:	15. 06. 2019 19:45

#	Modifying user name:	WinNT
#	Modification time:	15. 06. 2019 19:45

#	Program:	/corina/corina34_cracker 3.40 0067  02.08.2006

@<TRIPOS>MOLECULE
ASD01883092
  35   37    0    0    0
SMALL
NO_CHARGES


@<TRIPOS>ATOM
   1 N1            -0.0162     1.3415     0.0094 N.am    
   2 C2             0.0021    -0.0041     0.0020 C.2     
   3 C3            -1.2144    -0.7274     0.0102 C.2     
   4 C4            -2.4281    -0.0089     0.0261 C.2     
   5 C5            -2.3786     1.4027     0.0332 C.2     
   6 C6            -1.1855     2.0348     0.0299 C.2     
   7 O7             1.0660    -0.5997    -0.0122 O.2     
   8 C8            -1.2131    -2.1594     0.0021 C.1     
   9 N9            -1.2121    -3.2954    -0.0044 N.1     
  10 C10            1.2518     2.0753     0.0013 C.3     
  11 C11            1.6730     2.3345    -1.4223 C.ar    
  12 C12            1.2717     3.4862    -2.0719 C.ar    
  13 N13            1.6364     3.7200    -3.3176 N.ar    
  14 C14            2.3920     2.8736    -3.9894 C.ar    
  15 C15            2.8319     1.7009    -3.4047 C.ar    
  16 C16            2.4729     1.4230    -2.0949 C.ar    
  17 C17           -3.7164    -0.7137     0.0347 C.2     
  18 C18            2.7801     3.1883    -5.4111 C.3     
  19 F19            2.3205     4.4659    -5.7481 F       
  20 F20            4.1730     3.1461    -5.5346 F       
  21 F21            2.2070     2.2448    -6.2706 F       
  22 C22           -4.6275    -0.6873     1.0523 C.2     
  23 C23           -5.7512    -1.4391     0.7958 C.2     
  24 C24           -5.7604    -2.0590    -0.3892 C.2     
  25 S25           -4.3366    -1.7208    -1.2664 S.3     
  26 H26           -3.2940     1.9757     0.0451 H       
  27 H27           -1.1596     3.1145     0.0354 H       
  28 H28            1.1254     3.0248     0.5214 H       
  29 H29            2.0169     1.4842     0.5046 H       
  30 H30            0.6521     4.2030    -1.5537 H       
  31 H31            3.4503     1.0114    -3.9602 H       
  32 H32            2.8019     0.5146    -1.6123 H       
  33 H33           -4.4803    -0.1322     1.9670 H       
  34 H34           -6.5658    -1.5226     1.4999 H       
  35 H35           -6.5641    -2.6864    -0.7454 H       
@<TRIPOS>BOND
   1    1    2 am
   2    1   10 1
   3    1    6 1
   4    2    3 1
   5    2    7 2
   6    3    4 2
   7    3    8 1
   8    4    5 1
   9    4   17 1
  10    5    6 2
  11    5   26 1
  12    6   27 1
  13    8    9 3
  14   10   11 1
  15   10   28 1
  16   10   29 1
  17   11   12 ar
  18   11   16 ar
  19   12   13 ar
  20   12   30 1
  21   13   14 ar
  22   14   15 ar
  23   14   18 1
  24   15   16 ar
  25   15   31 1
  26   16   32 1
  27   17   22 2
  28   17   25 1
  29   18   19 1
  30   18   20 1
  31   18   21 1
  32   22   23 1
  33   22   33 1
  34   23   24 2
  35   23   34 1
  36   24   25 1
  37   24   35 1

#	End of record

