#	Name: ASD01916131
#	Creating user name:	WinNT
#	Creation time:	15. 06. 2019 20:06

#	Modifying user name:	WinNT
#	Modification time:	15. 06. 2019 20:06

#	Program:	/corina/corina34_cracker 3.40 0067  02.08.2006

@<TRIPOS>MOLECULE
ASD01916131
  44   47    0    0    0
SMALL
NO_CHARGES


@<TRIPOS>ATOM
   1 C1            -0.1124     1.3885     0.0750 C.ar    
   2 C2            -0.0799     0.0055     0.0599 C.ar    
   3 C3            -1.2656    -0.7143     0.0501 C.ar    
   4 C4            -2.4810    -0.0456     0.0554 C.ar    
   5 C5            -2.5094     1.3358     0.0705 C.ar    
   6 C6            -1.3279     2.0527     0.0860 C.ar    
   7 O7            -1.2366    -2.0729     0.0348 O.3     
   8 C8            -2.4957    -2.7486     0.0254 C.3     
   9 C9            -2.2664    -4.2380     0.0089 C.2     
  10 C10           -1.0197    -4.8765     0.0035 C.2     
  11 N11           -3.1989    -5.1583     0.0030 N.2     
  12 N12           -2.5765    -6.4094    -0.0081 N.pl3   
  13 C13           -1.2390    -6.2049    -0.0124 C.2     
  14 C14           -3.2241    -7.7241    -0.0050 C.3     
  15 C15           -2.2219    -8.7820    -0.4793 C.3     
  16 N16           -0.9377    -8.5752     0.2074 N.am    
  17 C17           -0.2144    -7.3143    -0.0379 C.3     
  18 C18           -0.4373    -9.5094     1.0400 C.2     
  19 C19            0.9125    -9.3389     1.6157 C.ar    
  20 O20           -1.0966   -10.4924     1.3174 O.2     
  21 C21            1.1820    -9.7805     2.9128 C.ar    
  22 C22            2.4432    -9.6193     3.4449 C.ar    
  23 C23            3.4435    -9.0200     2.6947 C.ar    
  24 C24            3.1812    -8.5793     1.4065 C.ar    
  25 C25            1.9250    -8.7407     0.8626 C.ar    
  26 F26            1.0415     2.0911     0.0845 F       
  27 F27            4.6780    -8.8644     3.2210 F       
  28 H28            0.8674    -0.5130     0.0554 H       
  29 H29           -3.4051    -0.6046     0.0475 H       
  30 H30           -3.4559     1.8558     0.0747 H       
  31 H31           -1.3523     3.1324     0.0982 H       
  32 H32           -3.0601    -2.4777     0.9177 H       
  33 H33           -3.0576    -2.4577    -0.8622 H       
  34 H34           -0.0554    -4.3904     0.0108 H       
  35 H35           -3.5559    -7.9641     1.0052 H       
  36 H36           -4.0824    -7.7087    -0.6767 H       
  37 H37           -2.6037    -9.7759    -0.2457 H       
  38 H38           -2.0779    -8.6903    -1.5559 H       
  39 H39            0.2699    -7.3472    -1.0138 H       
  40 H40            0.5297    -7.1546     0.7424 H       
  41 H41            0.4035   -10.2471     3.4981 H       
  42 H42            2.6526    -9.9601     4.4481 H       
  43 H43            3.9638    -8.1128     0.8266 H       
  44 H44            1.7218    -8.3974    -0.1410 H       
@<TRIPOS>BOND
   1    1    2 ar
   2    1   26 1
   3    1    6 ar
   4    2    3 ar
   5    2   28 1
   6    3    4 ar
   7    3    7 1
   8    4    5 ar
   9    4   29 1
  10    5    6 ar
  11    5   30 1
  12    6   31 1
  13    7    8 1
  14    8    9 1
  15    8   32 1
  16    8   33 1
  17    9   10 1
  18    9   11 2
  19   10   13 2
  20   10   34 1
  21   11   12 1
  22   12   13 1
  23   12   14 1
  24   13   17 1
  25   14   15 1
  26   14   35 1
  27   14   36 1
  28   15   16 1
  29   15   37 1
  30   15   38 1
  31   16   17 1
  32   16   18 am
  33   17   39 1
  34   17   40 1
  35   18   19 1
  36   18   20 2
  37   19   21 ar
  38   19   25 ar
  39   21   22 ar
  40   21   41 1
  41   22   23 ar
  42   22   42 1
  43   23   24 ar
  44   23   27 1
  45   24   25 ar
  46   24   43 1
  47   25   44 1

#	End of record

