#	Name: ASD01811709
#	Creating user name:	WinNT
#	Creation time:	15. 06. 2019 19:27

#	Modifying user name:	WinNT
#	Modification time:	15. 06. 2019 19:27

#	Program:	/corina/corina34_cracker 3.40 0067  02.08.2006

@<TRIPOS>MOLECULE
ASD01811709
  57   61    0    0    0
SMALL
NO_CHARGES


@<TRIPOS>ATOM
   1 C1            -0.0167     1.3805    -0.0158 C.ar    
   2 C2             0.0021    -0.0041    -0.0091 C.ar    
   3 C3             1.2076    -0.6836     0.0028 C.ar    
   4 C4             2.3989     0.0118     0.0075 C.ar    
   5 C5             2.3881     1.4079     0.0003 C.ar    
   6 C6             1.1658     2.0836    -0.0112 C.ar    
   7 C7            -1.2939    -0.7732    -0.0142 C.3     
   8 C8             1.2189    -2.1905     0.0110 C.3     
   9 C9             1.1084    -2.7014    -1.4024 C.ar    
  10 C10            2.2522    -2.9269    -2.1460 C.ar    
  11 C11            2.1542    -3.3956    -3.4415 C.ar    
  12 C12            0.9056    -3.6404    -3.9971 C.ar    
  13 C13           -0.2411    -3.4130    -3.2480 C.ar    
  14 C14           -0.1364    -2.9492    -1.9512 C.ar    
  15 N15            0.8028    -4.1156    -5.3118 N.pl3   
  16 N16            1.8712    -4.3872    -6.1762 N.2     
  17 C17            1.3804    -4.8132    -7.3122 C.2     
  18 C18           -0.0149    -4.8269    -7.2089 C.2     
  19 C19           -0.3450    -4.3987    -5.9683 C.2     
  20 C20            3.4709     2.4102     0.0027 C.2     
  21 N21            2.9565     3.6521    -0.0072 N.am    
  22 C22            1.4923     3.5561    -0.0165 C.3     
  23 O23            4.6582     2.1502     0.0129 O.2     
  24 C24            3.7301     4.8962    -0.0086 C.3     
  25 C25            4.7076     4.9228    -1.2017 C.3     
  26 C26            3.9988     5.6871    -2.3337 C.3     
  27 C27            2.6154     6.0983    -1.7888 C.3     
  28 C28            2.8014     6.1118    -0.2512 C.3     
  29 C29            4.4901     5.0541     1.3099 C.3     
  30 O30            3.5747     4.9529     2.4025 O.3     
  31 H31           -0.9590     1.9080    -0.0292 H       
  32 H32            3.3375    -0.5224     0.0171 H       
  33 H33           -1.5994    -0.9635    -1.0430 H       
  34 H34           -1.1557    -1.7215     0.5051 H       
  35 H35           -2.0640    -0.1908     0.4917 H       
  36 H36            2.1500    -2.5444     0.4536 H       
  37 H37            0.3758    -2.5570     0.5968 H       
  38 H38            3.2232    -2.7361    -1.7134 H       
  39 H39            3.0479    -3.5712    -4.0219 H       
  40 H40           -1.2137    -3.6021    -3.6776 H       
  41 H41           -1.0280    -2.7722    -1.3680 H       
  42 H42            1.9537    -5.1038    -8.1801 H       
  43 H43           -0.7063    -5.1296    -7.9814 H       
  44 H44           -1.3456    -4.2959    -5.5752 H       
  45 H45            1.0919     4.0252    -0.9153 H       
  46 H46            1.0799     4.0345     0.8718 H       
  47 H47            5.6258     5.4386    -0.9208 H       
  48 H48            4.9333     3.9057    -1.5223 H       
  49 H49            4.5731     6.5738    -2.6020 H       
  50 H50            3.8806     5.0409    -3.2035 H       
  51 H51            2.3431     7.0904    -2.1489 H       
  52 H52            1.8598     5.3668    -2.0753 H       
  53 H53            1.8457     5.9748     0.2547 H       
  54 H54            3.2817     7.0354     0.0717 H       
  55 H55            5.2421     4.2693     1.3920 H       
  56 H56            4.9779     6.0286     1.3336 H       
  57 H57            3.9882     5.0438     3.2718 H       
@<TRIPOS>BOND
   1    1    2 ar
   2    1    6 ar
   3    1   31 1
   4    2    3 ar
   5    2    7 1
   6    3    4 ar
   7    3    8 1
   8    4    5 ar
   9    4   32 1
  10    5    6 ar
  11    5   20 1
  12    6   22 1
  13    7   33 1
  14    7   34 1
  15    7   35 1
  16    8    9 1
  17    8   36 1
  18    8   37 1
  19    9   10 ar
  20    9   14 ar
  21   10   11 ar
  22   10   38 1
  23   11   12 ar
  24   11   39 1
  25   12   13 ar
  26   12   15 1
  27   13   14 ar
  28   13   40 1
  29   14   41 1
  30   15   16 1
  31   15   19 1
  32   16   17 2
  33   17   18 1
  34   17   42 1
  35   18   19 2
  36   18   43 1
  37   19   44 1
  38   20   21 am
  39   20   23 2
  40   21   22 1
  41   21   24 1
  42   22   45 1
  43   22   46 1
  44   24   25 1
  45   24   29 1
  46   24   28 1
  47   25   26 1
  48   25   47 1
  49   25   48 1
  50   26   27 1
  51   26   49 1
  52   26   50 1
  53   27   28 1
  54   27   51 1
  55   27   52 1
  56   28   53 1
  57   28   54 1
  58   29   30 1
  59   29   55 1
  60   29   56 1
  61   30   57 1

#	End of record

