#	Name: ASD01916377
#	Creating user name:	WinNT
#	Creation time:	15. 06. 2019 20:07

#	Modifying user name:	WinNT
#	Modification time:	15. 06. 2019 20:07

#	Program:	/corina/corina34_cracker 3.40 0067  02.08.2006

@<TRIPOS>MOLECULE
ASD01916377
  29   30    0    0    0
SMALL
NO_CHARGES


@<TRIPOS>ATOM
   1 S1            -0.0211     1.7048     0.0114 S.3     
   2 C2             0.0021    -0.0041     0.0020 C.2     
   3 N3             1.2136    -0.4396    -0.0119 N.2     
   4 C4             2.1822     0.4667    -0.0163 C.2     
   5 C5             1.7401     1.7430    -0.0052 C.2     
   6 C6             3.5722     0.1228    -0.0304 C.1     
   7 C7             4.7118    -0.1591    -0.0420 C.1     
   8 C8             6.1406    -0.5127    -0.0565 C.3     
   9 C9             6.9822     0.7651    -0.0580 C.3     
  10 C10            8.4450     0.4032    -0.0729 C.ar    
  11 C11            9.1051     0.2429    -1.2768 C.ar    
  12 C12           10.4469    -0.0891    -1.2905 C.ar    
  13 C13           11.1287    -0.2604    -0.1002 C.ar    
  14 C14           10.4688    -0.0993     1.1037 C.ar    
  15 C15            9.1280     0.2370     1.1174 C.ar    
  16 C16           -1.2247    -0.8793     0.0098 C.3     
  17 H17            2.3569     2.6296    -0.0066 H       
  18 H18            6.3779    -1.1029     0.8285 H       
  19 H19            6.3619    -1.0944    -0.9513 H       
  20 H20            6.7449     1.3554    -0.9431 H       
  21 H21            6.7609     1.3469     0.8368 H       
  22 H22            8.5725     0.3768    -2.2067 H       
  23 H23           10.9625    -0.2150    -2.2311 H       
  24 H24           12.1769    -0.5205    -0.1109 H       
  25 H25           11.0013    -0.2334     2.0336 H       
  26 H26            8.6133     0.3666     2.0580 H       
  27 H27           -2.1173    -0.2537     0.0218 H       
  28 H28           -1.2310    -1.5041    -0.8833 H       
  29 H29           -1.2133    -1.5130     0.8966 H       
@<TRIPOS>BOND
   1    1    2 1
   2    1    5 1
   3    2    3 2
   4    2   16 1
   5    3    4 1
   6    4    5 2
   7    4    6 1
   8    5   17 1
   9    6    7 3
  10    7    8 1
  11    8    9 1
  12    8   18 1
  13    8   19 1
  14    9   10 1
  15    9   20 1
  16    9   21 1
  17   10   11 ar
  18   10   15 ar
  19   11   12 ar
  20   11   22 1
  21   12   13 ar
  22   12   23 1
  23   13   14 ar
  24   13   24 1
  25   14   15 ar
  26   14   25 1
  27   15   26 1
  28   16   27 1
  29   16   28 1
  30   16   29 1

#	End of record

