#	Name: ASD03330431
#	Creating user name:	WinNT
#	Creation time:	15. 06. 2019 20:37

#	Modifying user name:	WinNT
#	Modification time:	15. 06. 2019 20:37

#	Program:	/corina/corina34_cracker 3.40 0067  02.08.2006

@<TRIPOS>MOLECULE
ASD03330431
  61   65    0    0    0
SMALL
NO_CHARGES


@<TRIPOS>ATOM
   1 C1            -0.4555     1.7186    -0.5448 C.3     
   2 N2            -0.5065     0.2503    -0.5099 N.3     
   3 C3             0.1548    -0.3344    -1.6905 C.3     
   4 C4             1.5108     0.3079    -1.8296 C.2     
   5 N5             1.8735     1.4553    -1.1856 N.pl3   
   6 C6             0.9802     2.1956    -0.2901 C.3     
   7 C7             2.5759    -0.0906    -2.5682 C.2     
   8 N8             3.5714     0.8043    -2.3701 N.2     
   9 C9             3.1552     1.7345    -1.5397 C.2     
  10 C10            3.9486     2.8908    -1.0702 C.ar    
  11 C11            2.6382    -1.2835    -3.4304 C.2     
  12 O12            1.6718    -2.0159    -3.5263 O.2     
  13 C13            3.8633    -2.7501    -4.8467 C.ar    
  14 N14            3.7662    -1.5634    -4.1131 N.am    
  15 C15           -1.8913    -0.2257    -0.3924 C.3     
  16 C16            3.9722     3.2202     0.2856 C.ar    
  17 C17            4.7137     4.2996     0.7179 C.ar    
  18 C18            5.4346     5.0579    -0.1900 C.ar    
  19 C19            5.4161     4.7382    -1.5363 C.ar    
  20 C20            4.6823     3.6548    -1.9816 C.ar    
  21 F21            4.6643     3.3429    -3.2959 F       
  22 Cl22           6.3647     6.4152     0.3634 Cl      
  23 C23            4.5990    -2.7821    -6.0243 C.ar    
  24 C24            3.2290    -3.9007    -4.3962 C.ar    
  25 C25            3.3273    -5.0710    -5.1228 C.ar    
  26 C26            4.0567    -5.0983    -6.2974 C.ar    
  27 C27            4.6934    -3.9557    -6.7461 C.ar    
  28 S28            4.1805    -6.5939    -7.2207 S.o2    
  29 N29            2.9180    -6.6145    -8.2921 N.am    
  30 O30            5.3651    -6.4884    -7.9984 O.2     
  31 O31            3.9451    -7.6528    -6.3028 O.2     
  32 C32            3.0572    -6.0361    -9.6381 C.3     
  33 C33            2.5767    -7.0716   -10.6613 C.3     
  34 O34            1.2702    -7.5229   -10.2962 O.3     
  35 C35            1.2132    -8.1902    -9.0332 C.3     
  36 C36            1.6257    -7.2171    -7.9286 C.3     
  37 H37           -0.7857     2.0694    -1.5225 H       
  38 H38           -1.1133     2.1223     0.2249 H       
  39 H39            0.2686    -1.4098    -1.5544 H       
  40 H40           -0.4401    -0.1360    -2.5821 H       
  41 H41            1.0551     3.2633    -0.4961 H       
  42 H42            1.2543     2.0003     0.7467 H       
  43 H43            4.5105    -0.9417    -4.0955 H       
  44 H44           -2.4860     0.1816    -1.2101 H       
  45 H45           -1.9064    -1.3146    -0.4394 H       
  46 H46           -2.3089     0.1028     0.5593 H       
  47 H47            3.4104     2.6310     0.9952 H       
  48 H48            4.7321     4.5547     1.7672 H       
  49 H49            5.9796     5.3335    -2.2395 H       
  50 H50            5.0965    -1.8901    -6.3753 H       
  51 H51            2.6598    -3.8802    -3.4786 H       
  52 H52            2.8343    -5.9661    -4.7731 H       
  53 H53            5.2622    -3.9803    -7.6638 H       
  54 H54            2.4493    -5.1346    -9.7149 H       
  55 H55            4.1026    -5.7918    -9.8263 H       
  56 H56            2.5412    -6.6161   -11.6509 H       
  57 H57            3.2639    -7.9175   -10.6734 H       
  58 H58            0.1968    -8.5396    -8.8515 H       
  59 H59            1.8955    -9.0402    -9.0394 H       
  60 H60            1.7215    -7.7529    -6.9842 H       
  61 H61            0.8753    -6.4325    -7.8315 H       
@<TRIPOS>BOND
   1    1    2 1
   2    1    6 1
   3    1   37 1
   4    1   38 1
   5    2    3 1
   6    2   15 1
   7    3    4 1
   8    3   39 1
   9    3   40 1
  10    4    5 1
  11    4    7 2
  12    5    6 1
  13    5    9 1
  14    6   41 1
  15    6   42 1
  16    7    8 1
  17    7   11 1
  18    8    9 2
  19    9   10 1
  20   10   16 ar
  21   10   20 ar
  22   11   12 2
  23   11   14 am
  24   13   14 1
  25   13   23 ar
  26   13   24 ar
  27   14   43 1
  28   15   44 1
  29   15   45 1
  30   15   46 1
  31   16   17 ar
  32   16   47 1
  33   17   18 ar
  34   17   48 1
  35   18   19 ar
  36   18   22 1
  37   19   20 ar
  38   19   49 1
  39   20   21 1
  40   23   27 ar
  41   23   50 1
  42   24   25 ar
  43   24   51 1
  44   25   26 ar
  45   25   52 1
  46   26   27 ar
  47   26   28 1
  48   27   53 1
  49   28   29 am
  50   28   30 2
  51   28   31 2
  52   29   32 1
  53   29   36 1
  54   32   33 1
  55   32   54 1
  56   32   55 1
  57   33   34 1
  58   33   56 1
  59   33   57 1
  60   34   35 1
  61   35   36 1
  62   35   58 1
  63   35   59 1
  64   36   60 1
  65   36   61 1

#	End of record

