#	Name: ASD01000161
#	Creating user name:	WinNT
#	Creation time:	15. 06. 2019 18:54

#	Modifying user name:	WinNT
#	Modification time:	15. 06. 2019 18:54

#	Program:	/corina/corina34_cracker 3.40 0067  02.08.2006

@<TRIPOS>MOLECULE
ASD01000161
  52   55    0    0    0
SMALL
NO_CHARGES


@<TRIPOS>ATOM
   1 C1            -0.4820     1.4056     0.2643 C.ar    
   2 C2            -1.7129    -1.1544     1.4484 C.ar    
   3 C3             0.0013     0.0069     0.0101 C.3     
   4 C4            -1.3148     4.0107     0.7495 C.ar    
   5 C5            -2.2507     3.0094     0.6129 C.ar    
   6 C6            -1.8406     1.6918     0.3637 C.ar    
   7 C7             0.4466     2.4208     0.4067 C.ar    
   8 C8             0.0339     3.7178     0.6478 C.ar    
   9 C9            -2.0262    -1.9945     2.5267 C.ar    
  10 C10           -1.0196    -2.5642     3.2745 C.ar    
  11 C11            0.3045    -2.3087     2.9641 C.ar    
  12 C12            0.6219    -1.4799     1.9042 C.ar    
  13 C13           -0.3784    -0.8988     1.1460 C.ar    
  14 C14           -0.6170    -0.5083    -1.2640 C.ar    
  15 C15           -0.5730    -1.8586    -1.5568 C.ar    
  16 C16           -1.1401    -2.3312    -2.7255 C.ar    
  17 C17           -1.7517    -1.4536    -3.6012 C.ar    
  18 C18           -1.7965    -0.1035    -3.3079 C.ar    
  19 C19           -1.2332     0.3685    -2.1371 C.ar    
  20 S20            1.8068     0.0206    -0.1646 S.3     
  21 C21            2.0620     0.9687    -1.6899 C.3     
  22 C22            3.5601     1.1886    -1.9091 C.3     
  23 C23            3.7722     1.9763    -3.1762 C.2     
  24 N24            4.1176     1.9321    -0.7713 N.3     
  25 O25            3.7228     1.3583    -4.3668 O.3     
  26 O26            3.9866     3.1640    -3.1205 O.2     
  27 C27           -2.8583     0.6508     0.2037 C.2     
  28 C28           -2.8004    -0.5745     0.6741 C.2     
  29 C29           -2.3691    -1.9687    -4.8758 C.3     
  30 H30           -1.6337     5.0246     0.9409 H       
  31 H31           -3.3026     3.2403     0.6935 H       
  32 H32            1.5007     2.1987     0.3293 H       
  33 H33            0.7655     4.5053     0.7526 H       
  34 H34           -3.0588    -2.1948     2.7714 H       
  35 H35           -1.2640    -3.2109     4.1042 H       
  36 H36            1.0919    -2.7580     3.5510 H       
  37 H37            1.6572    -1.2846     1.6669 H       
  38 H38           -0.0953    -2.5442    -0.8727 H       
  39 H39           -1.1051    -3.3861    -2.9547 H       
  40 H40           -2.2740     0.5822    -3.9922 H       
  41 H41           -1.2714     1.4229    -1.9062 H       
  42 H42            1.6484     0.4171    -2.5341 H       
  43 H43            1.5616     1.9335    -1.6060 H       
  44 H44            4.0605     0.2239    -1.9929 H       
  45 H45            3.6697     2.8308    -0.6724 H       
  46 H46            4.0457     1.3965     0.0807 H       
  47 H47            3.8649     1.9052    -5.1515 H       
  48 H48           -3.7432     0.9166    -0.3555 H       
  49 H49           -3.6423    -1.2173     0.4635 H       
  50 H50           -3.4120    -2.2290    -4.6950 H       
  51 H51           -2.3150    -1.1969    -5.6435 H       
  52 H52           -1.8268    -2.8530    -5.2107 H       
@<TRIPOS>BOND
   1    1    3 1
   2    1    7 ar
   3    1    6 ar
   4    2    9 ar
   5    2   13 ar
   6    2   28 1
   7    3   14 1
   8    3   20 1
   9    3   13 1
  10    4    5 ar
  11    4    8 ar
  12    4   30 1
  13    5    6 ar
  14    5   31 1
  15    6   27 1
  16    7    8 ar
  17    7   32 1
  18    8   33 1
  19    9   10 ar
  20    9   34 1
  21   10   11 ar
  22   10   35 1
  23   11   12 ar
  24   11   36 1
  25   12   13 ar
  26   12   37 1
  27   14   15 ar
  28   14   19 ar
  29   15   16 ar
  30   15   38 1
  31   16   17 ar
  32   16   39 1
  33   17   18 ar
  34   17   29 1
  35   18   19 ar
  36   18   40 1
  37   19   41 1
  38   20   21 1
  39   21   22 1
  40   21   42 1
  41   21   43 1
  42   22   23 1
  43   22   24 1
  44   22   44 1
  45   23   25 1
  46   23   26 2
  47   24   45 1
  48   24   46 1
  49   25   47 1
  50   27   28 2
  51   27   48 1
  52   28   49 1
  53   29   50 1
  54   29   51 1
  55   29   52 1

#	End of record

