#	Name: ASD01410452
#	Creating user name:	WinNT
#	Creation time:	15. 06. 2019 19:17

#	Modifying user name:	WinNT
#	Modification time:	15. 06. 2019 19:17

#	Program:	/corina/corina34_cracker 3.40 0067  02.08.2006

@<TRIPOS>MOLECULE
ASD01410452
  42   44    0    0    0
SMALL
NO_CHARGES


@<TRIPOS>ATOM
   1 S1             0.0673     1.7576    -0.6481 S.3     
   2 C2             0.1554     0.0045    -0.8954 C.2     
   3 N3             1.4076    -0.3462    -0.7170 N.2     
   4 C4             2.3149     0.5562    -0.4139 C.2     
   5 C5             1.8004     1.9315    -0.3022 C.2     
   6 O6             3.4899     0.2760    -0.2388 O.2     
   7 C7             2.4879     3.0634    -0.0059 C.2     
   8 C8             1.8267     4.3707    -0.1037 C.ar    
   9 C9             2.3502     5.4758     0.5791 C.ar    
  10 C10            1.7262     6.6990     0.4839 C.ar    
  11 C11            0.5785     6.8387    -0.2882 C.ar    
  12 C12            0.0543     5.7449    -0.9678 C.ar    
  13 C13            0.6736     4.5184    -0.8847 C.ar    
  14 O14           -0.0328     8.0474    -0.3786 O.3     
  15 C15           -1.2077     8.1212    -1.1886 C.3     
  16 S16           -0.6204    -2.4497    -1.4073 S.o2    
  17 O17           -1.8849    -3.0319    -1.6925 O.2     
  18 O18            0.5034    -2.5718    -2.2684 O.2     
  19 N19           -0.8861    -0.8268    -1.2125 N.am    
  20 C20           -0.1202    -3.0878     0.1570 C.ar    
  21 C21           -1.0679    -3.5585     1.0465 C.ar    
  22 C22           -0.6755    -4.0591     2.2738 C.ar    
  23 C23            0.6647    -4.0895     2.6115 C.ar    
  24 C24            1.6124    -3.6196     1.7216 C.ar    
  25 C25            1.2204    -3.1230     0.4925 C.ar    
  26 C26            1.0924    -4.6343     3.9498 C.3     
  27 H27            3.5213     3.0026     0.3018 H       
  28 H28            3.2415     5.3684     1.1795 H       
  29 H29            2.1288     7.5519     1.0103 H       
  30 H30           -0.8377     5.8589    -1.5659 H       
  31 H31            0.2685     3.6706    -1.4172 H       
  32 H32           -0.9614     7.8403    -2.2126 H       
  33 H33           -1.9627     7.4397    -0.7966 H       
  34 H34           -1.5954     9.1398    -1.1745 H       
  35 H35           -1.7792    -0.4648    -1.3229 H       
  36 H36           -2.1149    -3.5348     0.7828 H       
  37 H37           -1.4159    -4.4262     2.9691 H       
  38 H38            2.6594    -3.6430     1.9855 H       
  39 H39            1.9611    -2.7593    -0.2042 H       
  40 H40            1.2772    -5.7051     3.8640 H       
  41 H41            2.0051    -4.1328     4.2714 H       
  42 H42            0.3042    -4.4592     4.6821 H       
@<TRIPOS>BOND
   1    1    2 1
   2    1    5 1
   3    2    3 2
   4    2   19 1
   5    3    4 1
   6    4    5 1
   7    4    6 2
   8    5    7 2
   9    7    8 1
  10    7   27 1
  11    8    9 ar
  12    8   13 ar
  13    9   10 ar
  14    9   28 1
  15   10   11 ar
  16   10   29 1
  17   11   12 ar
  18   11   14 1
  19   12   13 ar
  20   12   30 1
  21   13   31 1
  22   14   15 1
  23   15   32 1
  24   15   33 1
  25   15   34 1
  26   16   17 2
  27   16   18 2
  28   16   19 am
  29   16   20 1
  30   19   35 1
  31   20   21 ar
  32   20   25 ar
  33   21   22 ar
  34   21   36 1
  35   22   23 ar
  36   22   37 1
  37   23   24 ar
  38   23   26 1
  39   24   25 ar
  40   24   38 1
  41   25   39 1
  42   26   40 1
  43   26   41 1
  44   26   42 1

#	End of record

