#	Name: ASD06170328
#	Creating user name:	WinNT
#	Creation time:	15. 06. 2019 21:05

#	Modifying user name:	WinNT
#	Modification time:	15. 06. 2019 21:05

#	Program:	/corina/corina34_cracker 3.40 0067  02.08.2006

@<TRIPOS>MOLECULE
ASD06170328
  67   71    0    0    0
SMALL
NO_CHARGES


@<TRIPOS>ATOM
   1 N1             0.7887     0.0234     0.3763 N.am    
   2 N2             1.3026    -0.9388     1.2503 N.pl3   
   3 C3             2.6628    -0.9649     1.1553 C.2     
   4 C4             3.0469    -0.0111     0.2101 C.2     
   5 C5             1.8101     0.6128    -0.2769 C.2     
   6 C6             4.4136     0.3048    -0.2116 C.2     
   7 O7             5.3464    -0.3610     0.1986 O.2     
   8 N8             4.6383     1.3327    -1.0540 N.am    
   9 C9             0.5019    -1.7897     2.1340 C.3     
  10 C10            3.5684    -1.8447     1.9166 C.ar    
  11 C11            5.9287     1.5666    -1.5445 C.ar    
  12 C12            6.7744     0.4983    -1.8110 C.ar    
  13 C13            8.0475     0.7286    -2.2954 C.ar    
  14 C14            8.4821     2.0267    -2.5154 C.ar    
  15 C15            7.6368     3.0973    -2.2491 C.ar    
  16 C16            6.3609     2.8672    -1.7699 C.ar    
  17 O17            9.7359     2.2525    -2.9914 O.3     
  18 N18           12.7041     3.0805    -0.2505 N.ar    
  19 C19           13.0483     2.9622    -1.5384 C.ar    
  20 C20           12.0593     2.6782    -2.5116 C.ar    
  21 C21           10.7170     2.5244    -2.0965 C.ar    
  22 C22           10.4349     2.6605    -0.7484 C.ar    
  23 C23           11.4607     2.9397     0.1453 C.ar    
  24 O24            1.7236     1.4942    -1.1118 O.2     
  25 C25           -0.6309     0.3364     0.1948 C.3     
  26 C26           12.4222     2.5555    -3.8608 C.ar    
  27 C27           13.7232     2.7099    -4.2291 C.ar    
  28 C28           14.7075     2.9899    -3.2769 C.ar    
  29 C29           14.3832     3.1164    -1.9451 C.ar    
  30 C30            4.6699    -1.3067     2.5883 C.ar    
  31 C31            5.5125    -2.1359     3.2983 C.ar    
  32 C32            5.2700    -3.4976     3.3464 C.ar    
  33 C33            4.1817    -4.0376     2.6836 C.ar    
  34 C34            3.3264    -3.2202     1.9750 C.ar    
  35 C35            0.4375    -1.1605     3.5271 C.3     
  36 C36           -0.2921    -2.1080     4.4815 C.3     
  37 O37           -0.2672     0.0807     3.4571 O.3     
  38 F38            8.0604     4.3622    -2.4631 F       
  39 O39           15.9990     3.1391    -3.6704 O.3     
  40 C40           16.2727     2.9964    -5.0657 C.3     
  41 H41            3.9060     1.9104    -1.3204 H       
  42 H42           -0.5065    -1.8846     1.7312 H       
  43 H43            0.9604    -2.7763     2.2017 H       
  44 H44            6.4370    -0.5132    -1.6393 H       
  45 H45            8.7048    -0.1029    -2.5025 H       
  46 H46            5.7020     3.6984    -1.5666 H       
  47 H47            9.4211     2.5505    -0.3929 H       
  48 H48           11.2289     3.0434     1.1951 H       
  49 H49           -0.9219     1.1215     0.8928 H       
  50 H50           -0.8001     0.6773    -0.8266 H       
  51 H51           -1.2268    -0.5566     0.3833 H       
  52 H52           11.6709     2.3386    -4.6057 H       
  53 H53           13.9983     2.6146    -5.2691 H       
  54 H54           15.1511     3.3329    -1.2173 H       
  55 H55            4.8608    -0.2443     2.5510 H       
  56 H56            6.3640    -1.7217     3.8177 H       
  57 H57            5.9336    -4.1421     3.9038 H       
  58 H58            3.9992    -5.1013     2.7251 H       
  59 H59            2.4774    -3.6429     1.4585 H       
  60 H60            1.4489    -0.9839     3.8931 H       
  61 H61            0.2455    -3.0548     4.5349 H       
  62 H62           -0.3379    -1.6598     5.4740 H       
  63 H63           -1.3035    -2.2846     4.1154 H       
  64 H64           -0.3465     0.5364     4.3063 H       
  65 H65           15.9801     1.9988    -5.3932 H       
  66 H66           15.7082     3.7425    -5.6249 H       
  67 H67           17.3386     3.1390    -5.2433 H       
@<TRIPOS>BOND
   1    1    2 1
   2    1    5 am
   3    1   25 1
   4    2    3 1
   5    2    9 1
   6    3    4 2
   7    3   10 1
   8    4    5 1
   9    4    6 1
  10    5   24 2
  11    6    7 2
  12    6    8 am
  13    8   11 1
  14    8   41 1
  15    9   35 1
  16    9   42 1
  17    9   43 1
  18   10   30 ar
  19   10   34 ar
  20   11   12 ar
  21   11   16 ar
  22   12   13 ar
  23   12   44 1
  24   13   14 ar
  25   13   45 1
  26   14   15 ar
  27   14   17 1
  28   15   16 ar
  29   15   38 1
  30   16   46 1
  31   17   21 1
  32   18   19 ar
  33   18   23 ar
  34   19   20 ar
  35   19   29 ar
  36   20   21 ar
  37   20   26 ar
  38   21   22 ar
  39   22   23 ar
  40   22   47 1
  41   23   48 1
  42   25   49 1
  43   25   50 1
  44   25   51 1
  45   26   27 ar
  46   26   52 1
  47   27   28 ar
  48   27   53 1
  49   28   29 ar
  50   28   39 1
  51   29   54 1
  52   30   31 ar
  53   30   55 1
  54   31   32 ar
  55   31   56 1
  56   32   33 ar
  57   32   57 1
  58   33   34 ar
  59   33   58 1
  60   34   59 1
  61   35   36 1
  62   35   37 1
  63   35   60 1
  64   36   61 1
  65   36   62 1
  66   36   63 1
  67   37   64 1
  68   39   40 1
  69   40   65 1
  70   40   66 1
  71   40   67 1

#	End of record

