#	Name: ASD02038896
#	Creating user name:	WinNT
#	Creation time:	15. 06. 2019 20:17

#	Modifying user name:	WinNT
#	Modification time:	15. 06. 2019 20:17

#	Program:	/corina/corina34_cracker 3.40 0067  02.08.2006

@<TRIPOS>MOLECULE
ASD02038896
  69   71    0    0    0
SMALL
NO_CHARGES


@<TRIPOS>ATOM
   1 C1            -0.1092     1.4337     0.2565 C.2     
   2 N2            -0.0582     0.0871     0.2837 N.am    
   3 O3             0.9013     2.0792     0.0153 O.co2   
   4 O4            -1.1671     2.0099     0.4679 O.co2   
   5 C5             2.2524    -0.2916     0.9216 C.2     
   6 C6             1.1777    -0.6067    -0.0868 C.3     
   7 C7             1.6274    -0.1420    -1.4735 C.3     
   8 O8             2.1157     0.6439     1.6812 O.2     
   9 O9             0.6274    -0.4802    -2.4367 O.3     
  10 N10            3.3655    -1.0494     0.9792 N.am    
  11 C11            4.4410    -0.9180     1.9730 C.3     
  12 C12            5.5130    -1.9739     1.6303 C.3     
  13 C13            5.2489    -2.2625     0.1289 C.3     
  14 C14            3.7031    -2.1515     0.0601 C.3     
  15 C15            5.0401     0.4629     1.9003 C.2     
  16 O16            4.6151     1.2668     1.0978 O.2     
  17 N17            6.0481     0.8045     2.7271 N.am    
  18 C18            6.7215     2.1109     2.7631 C.3     
  19 C19            7.8210     2.0301     3.8431 C.3     
  20 C20            8.0798     0.5049     3.9620 C.3     
  21 C21            6.6538    -0.0679     3.7496 C.3     
  22 C22            7.3416     2.4050     1.4214 C.2     
  23 N23            8.0138     3.5570     1.2277 N.am    
  24 O24            7.2359     1.6049     0.5161 O.2     
  25 C25            9.7670     4.8000     0.1007 C.2     
  26 C26            8.6166     3.8429    -0.0766 C.3     
  27 C27            7.5677     4.4710    -0.9966 C.3     
  28 O28           10.0551     5.2036     1.2075 O.2     
  29 O29            7.1761     5.7422    -0.4743 O.3     
  30 N30           10.4759     5.2075    -0.9708 N.am    
  31 C31           -1.2386    -0.6827     0.6839 C.3     
  32 C32           -2.0737    -0.9904    -0.5322 C.ar    
  33 C33           -1.8474    -2.1494    -1.2508 C.ar    
  34 C34           -2.6134    -2.4316    -2.3664 C.ar    
  35 C35           -3.6060    -1.5550    -2.7631 C.ar    
  36 C36           -3.8328    -0.3964    -2.0440 C.ar    
  37 C37           -3.0697    -0.1164    -0.9259 C.ar    
  38 H38            0.9997    -1.6819    -0.1040 H       
  39 H39            1.7732     0.9382    -1.4651 H       
  40 H40            2.5647    -0.6331    -1.7350 H       
  41 H41            0.8462    -0.2148    -3.3404 H       
  42 H42            4.0465    -1.1011     2.9725 H       
  43 H43            6.5142    -1.5680     1.7747 H       
  44 H44            5.3713    -2.8750     2.2270 H       
  45 H45            5.7263    -1.5134    -0.5028 H       
  46 H46            5.5791    -3.2659    -0.1401 H       
  47 H47            3.2386    -3.0794     0.3937 H       
  48 H48            3.3853    -1.9104    -0.9542 H       
  49 H49            6.0048     2.8904     3.0214 H       
  50 H50            8.7216     2.5498     3.5161 H       
  51 H51            7.4626     2.4354     4.7893 H       
  52 H52            8.7619     0.1625     3.1838 H       
  53 H53            8.4584     0.2489     4.9516 H       
  54 H54            6.0816    -0.0204     4.6761 H       
  55 H55            6.7079    -1.0949     3.3883 H       
  56 H56            8.0983     4.1969     1.9518 H       
  57 H57            8.9802     2.9158    -0.5198 H       
  58 H58            7.9900     4.6019    -1.9929 H       
  59 H59            6.6970     3.8179    -1.0540 H       
  60 H60            6.5116     6.1989    -1.0081 H       
  61 H61           10.2455     4.8847    -1.8560 H       
  62 H62           11.2164     5.8235    -0.8567 H       
  63 H63           -0.9228    -1.6145     1.1531 H       
  64 H64           -1.8287    -0.1011     1.3922 H       
  65 H65           -1.0720    -2.8342    -0.9409 H       
  66 H66           -2.4361    -3.3367    -2.9283 H       
  67 H67           -4.2039    -1.7751    -3.6351 H       
  68 H68           -4.6081     0.2886    -2.3541 H       
  69 H69           -3.2494     0.7870    -0.3618 H       
@<TRIPOS>BOND
   1    1    2 am
   2    1    3 ar
   3    1    4 ar
   4    2    6 1
   5    2   31 1
   6    5    6 1
   7    5    8 2
   8    5   10 am
   9    6    7 1
  10    6   38 1
  11    7    9 1
  12    7   39 1
  13    7   40 1
  14    9   41 1
  15   10   11 1
  16   10   14 1
  17   11   12 1
  18   11   15 1
  19   11   42 1
  20   12   13 1
  21   12   43 1
  22   12   44 1
  23   13   14 1
  24   13   45 1
  25   13   46 1
  26   14   47 1
  27   14   48 1
  28   15   16 2
  29   15   17 am
  30   17   18 1
  31   17   21 1
  32   18   19 1
  33   18   22 1
  34   18   49 1
  35   19   20 1
  36   19   50 1
  37   19   51 1
  38   20   21 1
  39   20   52 1
  40   20   53 1
  41   21   54 1
  42   21   55 1
  43   22   23 am
  44   22   24 2
  45   23   26 1
  46   23   56 1
  47   25   26 1
  48   25   28 2
  49   25   30 am
  50   26   27 1
  51   26   57 1
  52   27   29 1
  53   27   58 1
  54   27   59 1
  55   29   60 1
  56   30   61 1
  57   30   62 1
  58   31   32 1
  59   31   63 1
  60   31   64 1
  61   32   33 ar
  62   32   37 ar
  63   33   34 ar
  64   33   65 1
  65   34   35 ar
  66   34   66 1
  67   35   36 ar
  68   35   67 1
  69   36   37 ar
  70   36   68 1
  71   37   69 1

#	End of record

