#	Name: ASD01910139
#	Creating user name:	WinNT
#	Creation time:	15. 06. 2019 19:55

#	Modifying user name:	WinNT
#	Modification time:	15. 06. 2019 19:55

#	Program:	/corina/corina34_cracker 3.40 0067  02.08.2006

@<TRIPOS>MOLECULE
ASD01910139
  38   40    0    0    0
SMALL
NO_CHARGES


@<TRIPOS>ATOM
   1 C1            -0.0167     1.3797     0.0096 C.ar    
   2 C2             0.0021    -0.0041     0.0020 C.ar    
   3 C3             1.2058    -0.6866    -0.0131 C.ar    
   4 C4             2.3967     0.0088    -0.0207 C.ar    
   5 C5             2.3858     1.4064    -0.0131 C.ar    
   6 C6             1.1661     2.0888     0.0021 C.ar    
   7 C7             3.6182     2.1357    -0.0210 C.1     
   8 C8             4.6285     2.7335    -0.0274 C.1     
   9 C9             5.8609     3.4628    -0.0352 C.ar    
  10 C10            5.8464     4.8620    -0.0275 C.ar    
  11 C11            7.0221     5.5569    -0.0345 C.ar    
  12 C12            8.2400     4.8705    -0.0493 C.ar    
  13 C13            8.2553     3.4726    -0.0575 C.ar    
  14 C14            7.0803     2.7764    -0.0447 C.ar    
  15 C15            9.5105     5.6223    -0.0569 C.2     
  16 O16            9.4975     6.8381    -0.0503 O.2     
  17 N17           10.6847     4.9610    -0.0712 N.am    
  18 C18           11.9455     5.7070    -0.0787 C.3     
  19 C19           13.1013     4.7401    -0.0944 C.2     
  20 C20           13.6617     4.2686    -1.2691 C.2     
  21 C21           14.6776     3.4197    -1.1061 C.2     
  22 S22           14.9735     3.1767     0.6106 S.3     
  23 C23           13.6655     4.2781     1.0225 C.2     
  24 H24           -0.9600     1.9055     0.0169 H       
  25 H25           -0.9274    -0.5541     0.0083 H       
  26 H26            1.2127    -1.7666    -0.0186 H       
  27 H27            3.3354    -0.5251    -0.0322 H       
  28 H28            1.1499     3.1687     0.0077 H       
  29 H29            4.9056     5.3924    -0.0165 H       
  30 H30            7.0110     6.6368    -0.0290 H       
  31 H31            9.1964     2.9430    -0.0693 H       
  32 H32            7.0923     1.6965    -0.0506 H       
  33 H33           10.6951     3.9911    -0.0765 H       
  34 H34           11.9885     6.3391    -0.9657 H       
  35 H35           12.0047     6.3295     0.8142 H       
  36 H36           13.3033     4.5654    -2.2437 H       
  37 H37           15.2330     2.9526    -1.9058 H       
  38 H38           13.3621     4.5366     2.0262 H       
@<TRIPOS>BOND
   1    1    2 ar
   2    1    6 ar
   3    1   24 1
   4    2    3 ar
   5    2   25 1
   6    3    4 ar
   7    3   26 1
   8    4    5 ar
   9    4   27 1
  10    5    6 ar
  11    5    7 1
  12    6   28 1
  13    7    8 3
  14    8    9 1
  15    9   10 ar
  16    9   14 ar
  17   10   11 ar
  18   10   29 1
  19   11   12 ar
  20   11   30 1
  21   12   13 ar
  22   12   15 1
  23   13   14 ar
  24   13   31 1
  25   14   32 1
  26   15   16 2
  27   15   17 am
  28   17   18 1
  29   17   33 1
  30   18   19 1
  31   18   34 1
  32   18   35 1
  33   19   20 1
  34   19   23 2
  35   20   21 2
  36   20   36 1
  37   21   22 1
  38   21   37 1
  39   22   23 1
  40   23   38 1

#	End of record

