#	Name: ASD01813299
#	Creating user name:	WinNT
#	Creation time:	15. 06. 2019 19:30

#	Modifying user name:	WinNT
#	Modification time:	15. 06. 2019 19:30

#	Program:	/corina/corina34_cracker 3.40 0067  02.08.2006

@<TRIPOS>MOLECULE
ASD01813299
  60   63    0    0    0
SMALL
NO_CHARGES


@<TRIPOS>ATOM
   1 C1            -0.0184     1.5028     0.0103 C.3     
   2 C2             0.0021    -0.0041     0.0020 C.ar    
   3 N3             0.0054    -0.6463    -1.1454 N.ar    
   4 C4             0.0236    -1.9724    -1.2012 C.ar    
   5 C5             0.0394    -2.7301    -0.0328 C.ar    
   6 C6             0.0363    -2.0798     1.1915 C.ar    
   7 C7             0.0535    -2.8618     2.4796 C.3     
   8 C8            -1.3572    -3.0364     2.9802 C.ar    
   9 C9            -1.9216    -2.0933     3.8271 C.ar    
  10 C10           -3.2200    -2.2908     4.2644 C.ar    
  11 C11           -3.9117    -3.4235     3.8414 C.ar    
  12 N12           -3.3356    -4.3018     3.0307 N.ar    
  13 C13           -2.1034    -4.1350     2.5953 C.ar    
  14 C14           -5.3037    -3.6499     4.3014 C.2     
  15 C15           -6.1205    -4.7467     3.9630 C.2     
  16 C16           -7.3100    -4.5836     4.5817 C.2     
  17 N17           -7.2591    -3.4327     5.2866 N.pl3   
  18 C18           -8.3395    -2.8780     6.1059 C.3     
  19 N19           -5.9921    -2.8643     5.1028 N.2     
  20 C20            0.0229    -0.6940     1.2039 C.ar    
  21 C21            0.0251     0.0553     2.5115 C.3     
  22 C22            0.0266    -2.6523    -2.5177 C.2     
  23 O23            0.0433    -3.8660    -2.5747 O.2     
  24 N24            0.0110    -1.9246    -3.6520 N.am    
  25 C25            0.0140    -2.5969    -4.9537 C.3     
  26 H26            0.6164    -3.5033    -4.8931 H       
  27 C27           -1.4200    -2.9626    -5.3421 C.3     
  28 C28           -1.4168    -3.6647    -6.7015 C.3     
  29 C29           -0.8253    -2.7288    -7.7575 C.3     
  30 C30            0.6086    -2.3631    -7.3691 C.3     
  31 C31            0.6055    -1.6610    -6.0097 C.3     
  32 H32            0.0031    -0.7546    -6.0702 H       
  33 O33            1.9448    -1.3194    -5.6469 O.3     
  34 H34            1.0042     1.8801     0.0026 H       
  35 H35           -0.5455     1.8639    -0.8728 H       
  36 H36           -0.5286     1.8543     0.9071 H       
  37 H37            0.0535    -3.8090    -0.0798 H       
  38 H38            0.5007    -3.8404     2.3046 H       
  39 H39            0.6392    -2.3227     3.2242 H       
  40 H40           -1.3602    -1.2247     4.1385 H       
  41 H41           -3.6900    -1.5769     4.9246 H       
  42 H42           -1.6686    -4.8686     1.9326 H       
  43 H43           -5.8448    -5.5710     3.3220 H       
  44 H44           -8.1535    -5.2555     4.5232 H       
  45 H45           -8.2533    -3.2557     7.1248 H       
  46 H46           -8.2675    -1.7904     6.1143 H       
  47 H47           -9.3015    -3.1753     5.6884 H       
  48 H48           -1.0019     0.2220     2.8364 H       
  49 H49            0.5541    -0.5292     3.2642 H       
  50 H50            0.5247     1.0150     2.3794 H       
  51 H51           -0.0023    -0.9558    -3.6066 H       
  52 H52           -1.8414    -3.6294    -4.5898 H       
  53 H53           -2.0224    -2.0562    -5.4027 H       
  54 H54           -0.8144    -4.5711    -6.6409 H       
  55 H55           -2.4384    -3.9252    -6.9782 H       
  56 H56           -0.8231    -3.2290    -8.7260 H       
  57 H57           -1.4278    -1.8224    -7.8181 H       
  58 H58            1.2111    -3.2694    -7.3085 H       
  59 H59            1.0300    -1.6963    -8.1214 H       
  60 H60            2.3829    -0.7269    -6.2730 H       
@<TRIPOS>BOND
   1    1    2 1
   2    1   34 1
   3    1   35 1
   4    1   36 1
   5    2   20 ar
   6    2    3 ar
   7    3    4 ar
   8    4    5 ar
   9    4   22 1
  10    5    6 ar
  11    5   37 1
  12    6    7 1
  13    6   20 ar
  14    7    8 1
  15    7   38 1
  16    7   39 1
  17    8   13 ar
  18    8    9 ar
  19    9   10 ar
  20    9   40 1
  21   10   11 ar
  22   10   41 1
  23   11   12 ar
  24   11   14 1
  25   12   13 ar
  26   13   42 1
  27   14   19 2
  28   14   15 1
  29   15   16 2
  30   15   43 1
  31   16   17 1
  32   16   44 1
  33   17   18 1
  34   17   19 1
  35   18   45 1
  36   18   46 1
  37   18   47 1
  38   20   21 1
  39   21   48 1
  40   21   49 1
  41   21   50 1
  42   22   23 2
  43   22   24 am
  44   24   25 1
  45   24   51 1
  46   25   26 1
  47   25   31 1
  48   25   27 1
  49   27   28 1
  50   27   52 1
  51   27   53 1
  52   28   29 1
  53   28   54 1
  54   28   55 1
  55   29   30 1
  56   29   56 1
  57   29   57 1
  58   30   31 1
  59   30   58 1
  60   30   59 1
  61   31   32 1
  62   31   33 1
  63   33   60 1

#	End of record

