#	Name: ASD01884420
#	Creating user name:	WinNT
#	Creation time:	15. 06. 2019 19:48

#	Modifying user name:	WinNT
#	Modification time:	15. 06. 2019 19:48

#	Program:	/corina/corina34_cracker 3.40 0067  02.08.2006

@<TRIPOS>MOLECULE
ASD01884420
  44   46    0    0    0
SMALL
NO_CHARGES


@<TRIPOS>ATOM
   1 C1            -0.0164     1.3570     0.0095 C.2     
   2 C2             0.0021    -0.0041     0.0020 C.2     
   3 C3             1.2462    -0.6738    -0.0135 C.2     
   4 C4             2.4112     0.0586    -0.0206 C.2     
   5 N5             2.3716     1.4076    -0.0130 N.am    
   6 C6             1.1982     2.0660     0.0017 C.2     
   7 C7             1.2961    -2.1548    -0.0214 C.ar    
   8 C8             3.6248     2.1664    -0.0209 C.3     
   9 O9             1.1878     3.2861     0.0084 O.2     
  10 C10            4.0409     2.4342    -1.4444 C.ar    
  11 C11            3.6118     3.5811    -2.0858 C.ar    
  12 C12            3.9935     3.8267    -3.3915 C.ar    
  13 C13            4.8046     2.9257    -4.0556 C.ar    
  14 C14            5.2345     1.7793    -3.4139 C.ar    
  15 C15            4.8564     1.5358    -2.1067 C.ar    
  16 C16            0.8195    -2.8744     1.0755 C.ar    
  17 C17            1.8142    -2.8290    -1.1282 C.ar    
  18 C18            1.8606    -4.1994    -1.1370 C.ar    
  19 C19            1.3884    -4.9213    -0.0366 C.ar    
  20 C20            0.8651    -4.2447     1.0694 C.ar    
  21 C21            1.4376    -6.3955    -0.0447 C.2     
  22 O22            0.9824    -7.0906     1.0161 O.3     
  23 O23            1.8886    -6.9830    -1.0079 O.2     
  24 C24            1.0619    -8.5384     0.9388 C.3     
  25 C25            0.5027    -9.1493     2.2253 C.3     
  26 H26           -0.9566     1.8884     0.0169 H       
  27 H27           -0.9213    -0.5642     0.0082 H       
  28 H28            3.3640    -0.4497    -0.0321 H       
  29 H29            3.4796     3.1131     0.4994 H       
  30 H30            4.4014     1.5905     0.4824 H       
  31 H31            2.9780     4.2850    -1.5669 H       
  32 H32            3.6576     4.7224    -3.8929 H       
  33 H33            5.1023     3.1173    -5.0760 H       
  34 H34            5.8680     1.0752    -3.9329 H       
  35 H35            5.1922     0.6401    -1.6054 H       
  36 H36            0.4150    -2.3515     1.9296 H       
  37 H37            2.1786    -2.2712    -1.9782 H       
  38 H38            2.2612    -4.7209    -1.9937 H       
  39 H39            0.5001    -4.8012     1.9200 H       
  40 H40            0.4795    -8.8893     0.0869 H       
  41 H41            2.1024    -8.8391     0.8162 H       
  42 H42            1.0851    -8.7984     3.0772 H       
  43 H43           -0.5378    -8.8485     2.3479 H       
  44 H44            0.5624   -10.2361     2.1672 H       
@<TRIPOS>BOND
   1    1    2 2
   2    1    6 1
   3    1   26 1
   4    2    3 1
   5    2   27 1
   6    3    4 2
   7    3    7 1
   8    4    5 1
   9    4   28 1
  10    5    6 am
  11    5    8 1
  12    6    9 2
  13    7   16 ar
  14    7   17 ar
  15    8   10 1
  16    8   29 1
  17    8   30 1
  18   10   11 ar
  19   10   15 ar
  20   11   12 ar
  21   11   31 1
  22   12   13 ar
  23   12   32 1
  24   13   14 ar
  25   13   33 1
  26   14   15 ar
  27   14   34 1
  28   15   35 1
  29   16   20 ar
  30   16   36 1
  31   17   18 ar
  32   17   37 1
  33   18   19 ar
  34   18   38 1
  35   19   20 ar
  36   19   21 1
  37   20   39 1
  38   21   22 1
  39   21   23 2
  40   22   24 1
  41   24   25 1
  42   24   40 1
  43   24   41 1
  44   25   42 1
  45   25   43 1
  46   25   44 1

#	End of record

