#	Name: ASD05143306
#	Creating user name:	WinNT
#	Creation time:	15. 06. 2019 20:57

#	Modifying user name:	WinNT
#	Modification time:	15. 06. 2019 20:57

#	Program:	/corina/corina34_cracker 3.40 0067  02.08.2006

@<TRIPOS>MOLECULE
ASD05143306
  53   55    0    0    0
SMALL
NO_CHARGES


@<TRIPOS>ATOM
   1 C1            -0.2485     1.4563     0.0972 C.2     
   2 N2            -0.0170     0.2021    -0.2361 N.2     
   3 S3            -1.5416    -0.5452    -0.3032 S.3     
   4 C4            -2.4162     0.8760     0.1229 C.2     
   5 N5            -1.5047     1.8087     0.2903 N.2     
   6 N6            -3.7853     1.0070     0.2641 N.pl3   
   7 C7            -4.3278     2.2028     0.7498 C.ar    
   8 C8            -5.6261     2.5637     0.4140 C.ar    
   9 C9            -6.1605     3.7431     0.8939 C.ar    
  10 C10           -5.4009     4.5673     1.7111 C.ar    
  11 C11           -4.1038     4.2078     2.0467 C.ar    
  12 C12           -3.5698     3.0259     1.5723 C.ar    
  13 C13            1.2021    -0.3792    -0.4793 C.ar    
  14 C14            1.6054    -1.4940     0.2577 C.ar    
  15 C15            2.0399     0.1392    -1.4682 C.ar    
  16 C16            3.2639    -0.4481    -1.7097 C.ar    
  17 C17            3.6632    -1.5538    -0.9712 C.ar    
  18 C18            2.8309    -2.0754     0.0100 C.ar    
  19 C19            0.8576     2.4287     0.2544 C.ar    
  20 C20            0.6577     3.7724    -0.0628 C.ar    
  21 C21            2.1002     2.0040     0.7254 C.ar    
  22 C22            3.1276     2.9119     0.8705 C.ar    
  23 C23            2.9266     4.2476     0.5488 C.ar    
  24 C24            1.6895     4.6748     0.0848 C.ar    
  25 O25            4.8702    -2.1304    -1.2129 O.3     
  26 C26            5.2184    -3.2648    -0.4167 C.3     
  27 O27            3.9410     5.1398     0.6939 O.3     
  28 C28            3.6655     6.4978     0.3446 C.3     
  29 O29           -5.9279     5.7285     2.1833 O.3     
  30 C30           -5.0898     6.5286     3.0195 C.3     
  31 H31           -4.3701     0.2703     0.0267 H       
  32 H32           -6.2175     1.9223    -0.2226 H       
  33 H33           -7.1700     4.0241     0.6325 H       
  34 H34           -3.5129     4.8504     2.6825 H       
  35 H35           -2.5600     2.7462     1.8337 H       
  36 H36            0.9585    -1.9004     1.0211 H       
  37 H37            1.7297     0.9989    -2.0436 H       
  38 H38            3.9127    -0.0477    -2.4746 H       
  39 H39            3.1453    -2.9357     0.5823 H       
  40 H40           -0.3042     4.1053    -0.4238 H       
  41 H41            2.2570     0.9654     0.9764 H       
  42 H42            4.0898     2.5838     1.2351 H       
  43 H43            1.5367     5.7144    -0.1648 H       
  44 H44            4.4815    -4.0539    -0.5666 H       
  45 H45            6.2034    -3.6268    -0.7111 H       
  46 H46            5.2357    -2.9789     0.6350 H       
  47 H47            3.3761     6.5515    -0.7049 H       
  48 H48            2.8528     6.8749     0.9654 H       
  49 H49            4.5575     7.1028     0.5069 H       
  50 H50           -4.8046     5.9562     3.9022 H       
  51 H51           -4.1946     6.8162     2.4681 H       
  52 H52           -5.6308     7.4238     3.3262 H       
  53 Br53          11.2034    12.4238     8.9022 Br      
@<TRIPOS>BOND
   1    1    2 2
   2    1   19 1
   3    1    5 1
   4    2    3 1
   5    2   13 1
   6    3    4 1
   7    4    5 2
   8    4    6 1
   9    6    7 1
  10    6   31 1
  11    7    8 ar
  12    7   12 ar
  13    8    9 ar
  14    8   32 1
  15    9   10 ar
  16    9   33 1
  17   10   11 ar
  18   10   29 1
  19   11   12 ar
  20   11   34 1
  21   12   35 1
  22   13   14 ar
  23   13   15 ar
  24   14   18 ar
  25   14   36 1
  26   15   16 ar
  27   15   37 1
  28   16   17 ar
  29   16   38 1
  30   17   18 ar
  31   17   25 1
  32   18   39 1
  33   19   20 ar
  34   19   21 ar
  35   20   24 ar
  36   20   40 1
  37   21   22 ar
  38   21   41 1
  39   22   23 ar
  40   22   42 1
  41   23   24 ar
  42   23   27 1
  43   24   43 1
  44   25   26 1
  45   26   44 1
  46   26   45 1
  47   26   46 1
  48   27   28 1
  49   28   47 1
  50   28   48 1
  51   28   49 1
  52   29   30 1
  53   30   50 1
  54   30   51 1
  55   30   52 1

#	End of record

