#	Name: ASD01150453
#	Creating user name:	WinNT
#	Creation time:	15. 06. 2019 19:04

#	Modifying user name:	WinNT
#	Modification time:	15. 06. 2019 19:04

#	Program:	/corina/corina34_cracker 3.40 0067  02.08.2006

@<TRIPOS>MOLECULE
ASD01150453
  55   58    0    0    0
SMALL
NO_CHARGES


@<TRIPOS>ATOM
   1 C1             1.9143     1.4016     0.9687 C.ar    
   2 C2             1.9596     0.0213     0.9430 C.ar    
   3 C3             0.4926     0.0046    -0.9573 C.ar    
   4 C4             0.4445     1.3911    -0.9341 C.ar    
   5 C5             1.1563     2.0910     0.0298 C.ar    
   6 N6             1.1105     3.4892     0.0567 N.am    
   7 C7            -0.0780     4.1147    -0.0078 C.2     
   8 N8            -0.1589     5.4581     0.0161 N.am    
   9 C9             0.9636     6.2013     0.1061 C.2     
  10 C10            2.2667     5.5231     0.1770 C.2     
  11 N11            2.3023     4.2168     0.1563 N.2     
  12 O12            0.8987     7.4163     0.1278 O.2     
  13 C13           -1.4670     6.1139    -0.0561 C.3     
  14 O14           -1.0968     3.4557    -0.0895 O.2     
  15 C15           -2.0092     6.3079     1.3365 C.ar    
  16 C16           -1.7237     7.4681     2.0330 C.ar    
  17 C17           -2.2182     7.6528     3.3118 C.ar    
  18 C18           -2.9993     6.6788     3.8995 C.ar    
  19 C19           -3.2902     5.5078     3.2023 C.ar    
  20 C20           -2.7946     5.3297     1.9125 C.ar    
  21 O21            3.4151     6.2432     0.2677 O.3     
  22 C22            4.6386     5.5078     0.3321 C.3     
  23 C23            1.2518    -0.6785    -0.0157 C.ar    
  24 N24           -0.2233    -0.7049    -1.9279 N.am    
  25 C25            0.2667    -1.8622    -2.4149 C.2     
  26 C26           -0.5545    -2.6831    -3.3755 C.3     
  27 O27            1.3684    -2.2429    -2.0799 O.2     
  28 C28           -4.1296     4.4569     3.8292 C.ar    
  29 C29           -4.6299     4.6374     5.1171 C.ar    
  30 C30           -5.4101     3.6567     5.6954 C.ar    
  31 C31           -5.6956     2.4963     4.9988 C.ar    
  32 C32           -5.2012     2.3116     3.7202 C.ar    
  33 C33           -4.4252     3.2885     3.1299 C.ar    
  34 H34            2.4650     1.9454     1.7220 H       
  35 H35            2.5496    -0.5122     1.6735 H       
  36 H36           -0.1453     1.9245    -1.6649 H       
  37 H37           -1.3610     7.0833    -0.5431 H       
  38 H38           -2.1540     5.4921    -0.6301 H       
  39 H39           -1.1121     8.2327     1.5770 H       
  40 H40           -1.9921     8.5607     3.8512 H       
  41 H41           -3.3843     6.8237     4.8982 H       
  42 H42           -3.0171     4.4241     1.3677 H       
  43 H43            4.6282     4.8614     1.2097 H       
  44 H44            4.7446     4.8993    -0.5660 H       
  45 H45            5.4764     6.2016     0.4019 H       
  46 H46            1.2893    -1.7577    -0.0331 H       
  47 H47           -1.0722    -0.3638    -2.2503 H       
  48 H48           -0.3365    -2.3725    -4.3973 H       
  49 H49           -0.3069    -3.7379    -3.2557 H       
  50 H50           -1.6140    -2.5328    -3.1682 H       
  51 H51           -4.4072     5.5429     5.6620 H       
  52 H52           -5.7981     3.7954     6.6937 H       
  53 H53           -6.3065     1.7314     5.4551 H       
  54 H54           -5.4267     1.4034     3.1811 H       
  55 H55           -4.0397     3.1434     2.1316 H       
@<TRIPOS>BOND
   1    1    2 ar
   2    1    5 ar
   3    1   34 1
   4    2   23 ar
   5    2   35 1
   6    3    4 ar
   7    3   24 1
   8    3   23 ar
   9    4    5 ar
  10    4   36 1
  11    5    6 1
  12    6    7 am
  13    6   11 1
  14    7    8 am
  15    7   14 2
  16    8    9 am
  17    8   13 1
  18    9   10 1
  19    9   12 2
  20   10   11 2
  21   10   21 1
  22   13   15 1
  23   13   37 1
  24   13   38 1
  25   15   16 ar
  26   15   20 ar
  27   16   17 ar
  28   16   39 1
  29   17   18 ar
  30   17   40 1
  31   18   19 ar
  32   18   41 1
  33   19   20 ar
  34   19   28 1
  35   20   42 1
  36   21   22 1
  37   22   43 1
  38   22   44 1
  39   22   45 1
  40   23   46 1
  41   24   25 am
  42   24   47 1
  43   25   26 1
  44   25   27 2
  45   26   48 1
  46   26   49 1
  47   26   50 1
  48   28   29 ar
  49   28   33 ar
  50   29   30 ar
  51   29   51 1
  52   30   31 ar
  53   30   52 1
  54   31   32 ar
  55   31   53 1
  56   32   33 ar
  57   32   54 1
  58   33   55 1

#	End of record

