#	Name: ASD01914976
#	Creating user name:	WinNT
#	Creation time:	15. 06. 2019 20:04

#	Modifying user name:	WinNT
#	Modification time:	15. 06. 2019 20:04

#	Program:	/corina/corina34_cracker 3.40 0067  02.08.2006

@<TRIPOS>MOLECULE
ASD01914976
  36   38    0    0    0
SMALL
NO_CHARGES


@<TRIPOS>ATOM
   1 C1            -0.3867     1.7170     0.1125 C.ar    
   2 C2            -0.5136     0.3664     0.3819 C.ar    
   3 N3             0.5331    -0.3596     0.7130 N.ar    
   4 C4             1.7492     0.1666     0.8031 C.ar    
   5 C5             1.9567     1.5183     0.5474 C.ar    
   6 C6             0.8691     2.3129     0.1942 C.ar    
   7 C7            -1.8705    -0.2835     0.2955 C.3     
   8 O8             1.0292     3.6358    -0.0637 O.3     
   9 C9             2.2789     4.1597     0.0411 C.ar    
  10 C10            3.2184     3.9712    -0.9674 C.ar    
  11 N11            4.4242     4.4971    -0.8279 N.ar    
  12 C12            4.7392     5.1910     0.2473 C.ar    
  13 N13            3.8772     5.3915     1.2239 N.ar    
  14 C14            2.6497     4.9032     1.1569 C.ar    
  15 C15            2.8950    -0.6935     1.1796 C.2     
  16 N16            2.7008    -2.0037     1.4290 N.am    
  17 O17            4.0100    -0.2178     1.2636 O.2     
  18 C18            3.7912    -2.8344     1.6798 C.ar    
  19 C19            3.5957    -4.2035     1.8206 C.ar    
  20 C20            4.6869    -5.0175     2.0689 C.ar    
  21 C21            5.9420    -4.4310     2.1683 C.ar    
  22 C22            6.0626    -3.0622     2.0174 C.ar    
  23 N23            5.0041    -2.3129     1.7762 N.ar    
  24 Cl24           7.3441    -5.4062     2.4794 Cl      
  25 H25           -1.2517     2.3023    -0.1626 H       
  26 H26            2.9462     1.9447     0.6217 H       
  27 H27           -2.0324    -0.6535    -0.7169 H       
  28 H28           -1.9206    -1.1150     0.9986 H       
  29 H29           -2.6401     0.4478     0.5424 H       
  30 H30            2.9672     3.4033    -1.8511 H       
  31 H31            5.7324     5.6070     0.3307 H       
  32 H32            1.9485     5.0714     1.9609 H       
  33 H33            1.8020    -2.3684     1.4340 H       
  34 H34            2.6053    -4.6262     1.7376 H       
  35 H35            4.5653    -6.0846     2.1832 H       
  36 H36            7.0362    -2.6011     2.0937 H       
@<TRIPOS>BOND
   1    1    2 ar
   2    1    6 ar
   3    1   25 1
   4    2    3 ar
   5    2    7 1
   6    3    4 ar
   7    4    5 ar
   8    4   15 1
   9    5    6 ar
  10    5   26 1
  11    6    8 1
  12    7   27 1
  13    7   28 1
  14    7   29 1
  15    8    9 1
  16    9   10 ar
  17    9   14 ar
  18   10   11 ar
  19   10   30 1
  20   11   12 ar
  21   12   13 ar
  22   12   31 1
  23   13   14 ar
  24   14   32 1
  25   15   16 am
  26   15   17 2
  27   16   18 1
  28   16   33 1
  29   18   19 ar
  30   18   23 ar
  31   19   20 ar
  32   19   34 1
  33   20   21 ar
  34   20   35 1
  35   21   22 ar
  36   21   24 1
  37   22   23 ar
  38   22   36 1

#	End of record

