#	Name: ASD03330976
#	Creating user name:	WinNT
#	Creation time:	15. 06. 2019 20:38

#	Modifying user name:	WinNT
#	Modification time:	15. 06. 2019 20:38

#	Program:	/corina/corina34_cracker 3.40 0067  02.08.2006

@<TRIPOS>MOLECULE
ASD03330976
  58   60    0    0    0
SMALL
NO_CHARGES


@<TRIPOS>ATOM
   1 N1            -0.0164     1.3554     0.0653 N.pl3   
   2 C2             0.0029    -0.0038     0.0363 C.2     
   3 C3             1.2395    -0.8639     0.0226 C.3     
   4 N4             2.1701    -0.3869     1.0575 N.3     
   5 C5             3.0625     0.6480     0.5319 C.3     
   6 C6             2.3511     1.5031    -0.5128 C.3     
   7 C7             1.1625     2.2238     0.1291 C.3     
   8 C8            -1.3235     1.7462     0.0361 C.2     
   9 N9            -2.0806     0.6745     0.0088 N.2     
  10 C10           -1.2924    -0.4229     0.0109 C.2     
  11 C11           -1.7523    -1.8227    -0.0109 C.2     
  12 O12           -0.9416    -2.7292    -0.0069 O.2     
  13 N13           -3.0714    -2.0983    -0.0352 N.am    
  14 C14            2.9365    -1.5015     1.6305 C.3     
  15 C15           -1.8064     3.1442     0.0359 C.ar    
  16 C16           -2.7906     3.5466    -0.8709 C.ar    
  17 C17           -3.2374     4.8545    -0.8650 C.ar    
  18 C18           -2.7125     5.7633     0.0355 C.ar    
  19 C19           -1.7368     5.3704     0.9360 C.ar    
  20 C20           -1.2856     4.0653     0.9447 C.ar    
  21 F21           -3.3037     2.6596    -1.7513 F       
  22 Cl22          -1.0839     6.5197     2.0613 Cl      
  23 C23           -4.9196    -3.5600    -0.6900 C.3     
  24 C24           -3.5286    -3.4900    -0.0569 C.3     
  25 C25           -3.5918    -4.0284     1.3739 C.3     
  26 C26           -4.0692    -5.4818     1.3513 C.3     
  27 C27           -2.2007    -3.9584     2.0071 C.3     
  28 C28           -4.5685    -3.1834     2.1941 C.3     
  29 N29           -4.8850    -2.9341    -2.0186 N.3     
  30 H30            0.9658    -1.8988     0.2277 H       
  31 H31            1.7175    -0.7992    -0.9549 H       
  32 H32            3.3934     1.2857     1.3517 H       
  33 H33            3.9312     0.1737     0.0753 H       
  34 H34            3.0477     2.2393    -0.9139 H       
  35 H35            1.9944     0.8651    -1.3214 H       
  36 H36            0.9629     3.1495    -0.4106 H       
  37 H37            1.3926     2.4500     1.1702 H       
  38 H38           -3.7180    -1.3753    -0.0384 H       
  39 H39            3.4549    -2.0339     0.8330 H       
  40 H40            3.6655    -1.1135     2.3419 H       
  41 H41            2.2578    -2.1843     2.1416 H       
  42 H42           -3.9977     5.1675    -1.5653 H       
  43 H43           -3.0649     6.7842     0.0362 H       
  44 H44           -0.5280     3.7594     1.6510 H       
  45 H45           -5.2225    -4.6026    -0.7874 H       
  46 H46           -5.6335    -3.0318    -0.0580 H       
  47 H47           -2.8327    -4.0920    -0.6412 H       
  48 H48           -3.3733    -6.0838     0.7669 H       
  49 H49           -4.1143    -5.8653     2.3706 H       
  50 H50           -5.0603    -5.5317     0.9002 H       
  51 H51           -1.8605    -2.9229     2.0232 H       
  52 H52           -2.2457    -4.3419     3.0264 H       
  53 H53           -1.5048    -4.5604     1.4227 H       
  54 H54           -5.5596    -3.2332     1.7430 H       
  55 H55           -4.6136    -3.5669     3.2134 H       
  56 H56           -4.2284    -2.1479     2.2102 H       
  57 H57           -4.1843    -3.3648    -2.6030 H       
  58 H58           -5.7927    -2.9677    -2.4579 H       
@<TRIPOS>BOND
   1    1    2 1
   2    1    7 1
   3    1    8 1
   4    2    3 1
   5    2   10 2
   6    3    4 1
   7    3   30 1
   8    3   31 1
   9    4    5 1
  10    4   14 1
  11    5    6 1
  12    5   32 1
  13    5   33 1
  14    6    7 1
  15    6   34 1
  16    6   35 1
  17    7   36 1
  18    7   37 1
  19    8    9 2
  20    8   15 1
  21    9   10 1
  22   10   11 1
  23   11   12 2
  24   11   13 am
  25   13   24 1
  26   13   38 1
  27   14   39 1
  28   14   40 1
  29   14   41 1
  30   15   16 ar
  31   15   20 ar
  32   16   17 ar
  33   16   21 1
  34   17   18 ar
  35   17   42 1
  36   18   19 ar
  37   18   43 1
  38   19   20 ar
  39   19   22 1
  40   20   44 1
  41   23   29 1
  42   23   24 1
  43   23   45 1
  44   23   46 1
  45   24   25 1
  46   24   47 1
  47   25   26 1
  48   25   27 1
  49   25   28 1
  50   26   48 1
  51   26   49 1
  52   26   50 1
  53   27   51 1
  54   27   52 1
  55   27   53 1
  56   28   54 1
  57   28   55 1
  58   28   56 1
  59   29   57 1
  60   29   58 1

#	End of record

