#	Name: ASD01911773
#	Creating user name:	WinNT
#	Creation time:	15. 06. 2019 19:58

#	Modifying user name:	WinNT
#	Modification time:	15. 06. 2019 19:58

#	Program:	/corina/corina34_cracker 3.40 0067  02.08.2006

@<TRIPOS>MOLECULE
ASD01911773
  38   40    0    0    0
SMALL
NO_CHARGES


@<TRIPOS>ATOM
   1 N1            -0.0457     1.4641    -0.0025 N.3     
   2 C2             0.0021    -0.0041     0.0020 C.3     
   3 C3            -1.3940    -0.5517     0.1512 C.2     
   4 C4            -1.7475    -1.6064     0.8959 C.2     
   5 S5            -2.8432     0.0910    -0.6189 S.3     
   6 C6            -3.8059    -1.1653     0.1549 C.2     
   7 N7            -3.0224    -1.9142     0.8837 N.2     
   8 C8            -5.2207    -1.3347     0.0122 C.1     
   9 C9            -6.3805    -1.4736    -0.1049 C.1     
  10 C10           -7.7953    -1.6430    -0.2476 C.ar    
  11 C11           -8.4492    -2.6826     0.4202 C.ar    
  12 C12            1.2976     2.0373    -0.2319 C.3     
  13 C13           -9.8120    -2.8391     0.2782 C.ar    
  14 C14          -10.5320    -1.9702    -0.5229 C.ar    
  15 C15           -9.8916    -0.9389    -1.1876 C.ar    
  16 C16           -8.5303    -0.7662    -1.0508 C.ar    
  17 C17           -0.5637     1.9799     1.2780 C.3     
  18 C18            0.5038     2.9353     1.8515 C.3     
  19 C19            1.3155     3.3470     0.5951 C.3     
  20 C20            0.6061    -0.4987    -1.3138 C.3     
  21 H21            0.6170    -0.3450     0.8349 H       
  22 H22           -1.0273    -2.1694     1.4711 H       
  23 H23           -7.8886    -3.3617     1.0455 H       
  24 H24            2.0679     1.3532     0.1240 H       
  25 H25            1.4417     2.2548    -1.2902 H       
  26 H26          -10.3185    -3.6419     0.7932 H       
  27 H27          -11.5991    -2.0977    -0.6303 H       
  28 H28          -10.4602    -0.2650    -1.8113 H       
  29 H29           -8.0320     0.0393    -1.5698 H       
  30 H30           -1.4946     2.5217     1.1102 H       
  31 H31           -0.7322     1.1542     1.9694 H       
  32 H32            0.0352     3.8061     2.3100 H       
  33 H33            1.1401     2.4165     2.5685 H       
  34 H34            2.3346     3.6259     0.8628 H       
  35 H35            0.8196     4.1551     0.0574 H       
  36 H36            0.7028    -1.5840    -1.2839 H       
  37 H37           -0.0439    -0.2146    -2.1414 H       
  38 H38            1.5895    -0.0499    -1.4536 H       
@<TRIPOS>BOND
   1    1    2 1
   2    1   17 1
   3    1   12 1
   4    2    3 1
   5    2   20 1
   6    2   21 1
   7    3    4 2
   8    3    5 1
   9    4    7 1
  10    4   22 1
  11    5    6 1
  12    6    7 2
  13    6    8 1
  14    8    9 3
  15    9   10 1
  16   10   11 ar
  17   10   16 ar
  18   11   13 ar
  19   11   23 1
  20   12   19 1
  21   12   24 1
  22   12   25 1
  23   13   14 ar
  24   13   26 1
  25   14   15 ar
  26   14   27 1
  27   15   16 ar
  28   15   28 1
  29   16   29 1
  30   17   18 1
  31   17   30 1
  32   17   31 1
  33   18   19 1
  34   18   32 1
  35   18   33 1
  36   19   34 1
  37   19   35 1
  38   20   36 1
  39   20   37 1
  40   20   38 1

#	End of record

