#	Name: ASD09080097
#	Creating user name:	WinNT
#	Creation time:	15. 06. 2019 21:20

#	Modifying user name:	WinNT
#	Modification time:	15. 06. 2019 21:20

#	Program:	/corina/corina34_cracker 3.40 0067  02.08.2006

@<TRIPOS>MOLECULE
ASD09080097
  50   51    0    0    0
SMALL
NO_CHARGES


@<TRIPOS>ATOM
   1 C1            -0.0167     1.3799     0.0096 C.ar    
   2 C2             0.0021    -0.0041     0.0020 C.ar    
   3 C3             1.2064    -0.6807    -0.0127 C.ar    
   4 C4             2.4033     0.0323    -0.0204 C.ar    
   5 C5             2.3792     1.4253    -0.0131 C.ar    
   6 C6             1.1698     2.0928     0.0021 C.ar    
   7 C7             3.6997    -0.6897    -0.0357 C.ar    
   8 C8             4.8969     0.0231    -0.0433 C.ar    
   9 C9             3.7243    -2.0828    -0.0367 C.ar    
  10 C10            4.9328    -2.7491    -0.0510 C.ar    
  11 C11            6.1183    -2.0365    -0.0639 C.ar    
  12 C12            6.0998    -0.6534    -0.0576 C.ar    
  13 Cl13           1.1380     3.8285     0.0112 Cl      
  14 Cl14          -1.4902    -0.8910     0.0116 Cl      
  15 C15            7.4348    -2.7697    -0.0790 C.3     
  16 C16            7.8643    -3.0170    -1.5265 C.3     
  17 N17            8.1273    -1.7344    -2.1838 N.am    
  18 C18            9.1352    -3.8687    -1.5430 C.3     
  19 C19            8.8604    -5.2082    -0.8566 C.3     
  20 C20            8.0248    -1.6303    -3.5236 C.2     
  21 O21            7.7147    -2.5983    -4.1851 O.2     
  22 C22            8.2954    -0.3109    -4.1997 C.3     
  23 O23            8.1229    -0.4546    -5.6110 O.3     
  24 C24            8.3571     0.7456    -6.3504 C.3     
  25 O25            7.7416    -5.8421    -1.4798 O.3     
  26 O26            9.5363    -4.0997    -2.8950 O.3     
  27 C27           10.0731    -6.0942    -0.9806 C.2     
  28 O28           10.0115    -7.1164    -1.6218 O.2     
  29 O29           11.2218    -5.7478    -0.3786 O.3     
  30 H30           -0.9602     1.9054     0.0170 H       
  31 H31            1.2200    -1.7606    -0.0179 H       
  32 H32            3.3044     1.9823    -0.0186 H       
  33 H33            4.8836     1.1031    -0.0384 H       
  34 H34            2.7993    -2.6402    -0.0260 H       
  35 H35            4.9530    -3.8290    -0.0518 H       
  36 H36            7.0284    -0.1019    -0.0677 H       
  37 H37            8.1909    -2.1692     0.4267 H       
  38 H38            7.3250    -3.7243     0.4356 H       
  39 H39            7.0690    -3.5407    -2.0570 H       
  40 H40            8.3753    -0.9602    -1.6547 H       
  41 H41            9.9304    -3.3449    -1.0126 H       
  42 H42            8.6410    -5.0380     0.1974 H       
  43 H43            7.6003     0.4396    -3.8233 H       
  44 H44            9.3178     0.0025    -3.9887 H       
  45 H45            7.6633     1.5180    -6.0186 H       
  46 H46            9.3808     1.0809    -6.1840 H       
  47 H47            8.2058     0.5533    -7.4126 H       
  48 H48            7.8668    -6.0243    -2.4212 H       
  49 H49            9.7273    -3.2925    -3.3920 H       
  50 H50           11.9724    -6.3479    -0.4867 H       
@<TRIPOS>BOND
   1    1    2 ar
   2    1    6 ar
   3    1   30 1
   4    2    3 ar
   5    2   14 1
   6    3    4 ar
   7    3   31 1
   8    4    5 ar
   9    4    7 1
  10    5    6 ar
  11    5   32 1
  12    6   13 1
  13    7    8 ar
  14    7    9 ar
  15    8   12 ar
  16    8   33 1
  17    9   10 ar
  18    9   34 1
  19   10   11 ar
  20   10   35 1
  21   11   12 ar
  22   11   15 1
  23   12   36 1
  24   15   16 1
  25   15   37 1
  26   15   38 1
  27   16   17 1
  28   16   18 1
  29   16   39 1
  30   17   20 am
  31   17   40 1
  32   18   19 1
  33   18   26 1
  34   18   41 1
  35   19   25 1
  36   19   27 1
  37   19   42 1
  38   20   21 2
  39   20   22 1
  40   22   23 1
  41   22   43 1
  42   22   44 1
  43   23   24 1
  44   24   45 1
  45   24   46 1
  46   24   47 1
  47   25   48 1
  48   26   49 1
  49   27   28 2
  50   27   29 1
  51   29   50 1

#	End of record

