#	Name: ASD01418008
#	Creating user name:	WinNT
#	Creation time:	15. 06. 2019 19:20

#	Modifying user name:	WinNT
#	Modification time:	15. 06. 2019 19:20

#	Program:	/corina/corina34_cracker 3.40 0067  02.08.2006

@<TRIPOS>MOLECULE
ASD01418008
  38   40    0    0    0
SMALL
NO_CHARGES


@<TRIPOS>ATOM
   1 S1            -0.0220     1.7686     0.0118 S.3     
   2 C2             0.0021    -0.0041     0.0020 C.2     
   3 N3             1.2791    -0.3919    -0.0123 N.am    
   4 C4             2.2642     0.4903    -0.0169 C.2     
   5 C5             1.7956     1.9289    -0.0047 C.3     
   6 S6            -1.3662    -1.0330     0.0096 S.2     
   7 O7             3.4350     0.1754    -0.0292 O.2     
   8 N8             1.5816    -1.7598    -0.0220 N.am    
   9 S9             1.7472    -2.5610    -1.4619 S.o2    
  10 O10            2.1967    -3.8707    -1.1429 O.2     
  11 O11            0.5616    -2.3049    -2.2022 O.2     
  12 C12            3.0612    -1.7847    -2.3425 C.ar    
  13 C13            4.3597    -2.2302    -2.1807 C.ar    
  14 C14            5.3906    -1.6212    -2.8715 C.ar    
  15 C15            5.1228    -0.5670    -3.7247 C.ar    
  16 C16            3.8242    -0.1221    -3.8873 C.ar    
  17 C17            2.7928    -0.7339    -3.1997 C.ar    
  18 C18            2.2628     2.6608    -1.2645 C.3     
  19 C19            1.7825     4.0886    -1.2231 C.ar    
  20 C20            2.5697     5.0659    -0.6432 C.ar    
  21 C21            2.1298     6.3757    -0.6054 C.ar    
  22 C22            0.9018     6.7085    -1.1481 C.ar    
  23 C23            0.1144     5.7303    -1.7283 C.ar    
  24 C24            0.5575     4.4217    -1.7703 C.ar    
  25 Br25           0.2991     8.5002    -1.0962 Br      
  26 H26            2.1456     2.4407     0.8918 H       
  27 H27            1.6942    -2.2377     0.8146 H       
  28 H28            4.5689    -3.0539    -1.5141 H       
  29 H29            6.4052    -1.9688    -2.7445 H       
  30 H30            5.9283    -0.0907    -4.2639 H       
  31 H31            3.6150     0.7018    -4.5535 H       
  32 H32            1.7777    -0.3887    -3.3295 H       
  33 H33            3.3517     2.6449    -1.3112 H       
  34 H34            1.8541     2.1653    -2.1452 H       
  35 H35            3.5284     4.8059    -0.2192 H       
  36 H36            2.7447     7.1390    -0.1520 H       
  37 H37           -0.8446     5.9897    -2.1517 H       
  38 H38           -0.0554     3.6586    -2.2269 H       
@<TRIPOS>BOND
   1    1    2 1
   2    1    5 1
   3    2    3 am
   4    2    6 2
   5    3    4 am
   6    3    8 1
   7    4    5 1
   8    4    7 2
   9    5   18 1
  10    5   26 1
  11    8    9 am
  12    8   27 1
  13    9   10 2
  14    9   11 2
  15    9   12 1
  16   12   13 ar
  17   12   17 ar
  18   13   14 ar
  19   13   28 1
  20   14   15 ar
  21   14   29 1
  22   15   16 ar
  23   15   30 1
  24   16   17 ar
  25   16   31 1
  26   17   32 1
  27   18   19 1
  28   18   33 1
  29   18   34 1
  30   19   20 ar
  31   19   24 ar
  32   20   21 ar
  33   20   35 1
  34   21   22 ar
  35   21   36 1
  36   22   23 ar
  37   22   25 1
  38   23   24 ar
  39   23   37 1
  40   24   38 1

#	End of record

