#	Name: ASD03930274
#	Creating user name:	WinNT
#	Creation time:	15. 06. 2019 20:47

#	Modifying user name:	WinNT
#	Modification time:	15. 06. 2019 20:47

#	Program:	/corina/corina34_cracker 3.40 0067  02.08.2006

@<TRIPOS>MOLECULE
ASD03930274
  38   41    0    0    0
SMALL
NO_CHARGES


@<TRIPOS>ATOM
   1 C1            -0.0171     1.4119     0.0098 C.ar    
   2 C2             0.0021    -0.0041     0.0020 C.ar    
   3 C3            -1.1810    -0.7280     0.0084 C.ar    
   4 C4            -2.4003    -0.0512     0.0226 C.ar    
   5 C5            -2.4190     1.3647     0.0304 C.ar    
   6 C6            -1.2355     2.0887     0.0193 C.ar    
   7 N7             1.1619     2.0854     0.0022 N.2     
   8 C8             2.3016     1.4650    -0.0120 C.2     
   9 N9             2.4168     0.1106    -0.0208 N.am    
  10 C10            1.3153    -0.6752    -0.0141 C.2     
  11 N11           -3.5750    -0.7314     0.0286 N.2     
  12 N12           -4.7091    -0.1314     0.0413 N.2     
  13 N13           -4.8343     1.2600     0.0499 N.am    
  14 C14           -3.7294     2.0419     0.0450 C.2     
  15 O15           -3.8138     3.2559     0.0528 O.2     
  16 C16           -6.1644     1.8741     0.0638 C.3     
  17 O17            1.4048    -1.8886    -0.0218 O.2     
  18 C18            3.7464    -0.5042    -0.0377 C.3     
  19 C19            4.4994    -0.0566    -1.2921 C.3     
  20 C20            4.5246    -0.0706     1.2062 C.3     
  21 N21            3.8180    -0.5739    -2.4813 N.pl3   
  22 N22            2.8834     0.0316    -3.1301 N.2     
  23 C23            2.5229    -0.7366    -4.1287 C.2     
  24 N24            3.2750    -1.8355    -4.0634 N.2     
  25 N25            4.0609    -1.7041    -3.0489 N.2     
  26 H26           -1.1582    -1.8077     0.0020 H       
  27 H27           -1.2581     3.1684     0.0254 H       
  28 H28            3.2058     2.0556    -0.0175 H       
  29 H29           -6.9250     1.0934     0.0656 H       
  30 H30           -6.2718     2.4880     0.9581 H       
  31 H31           -6.2858     2.4978    -0.8218 H       
  32 H32            3.6448    -1.5894    -0.0428 H       
  33 H33            4.5235     1.0324    -1.3322 H       
  34 H34            5.5186    -0.4417    -1.2609 H       
  35 H35            3.9882    -0.3895     2.0999 H       
  36 H36            5.5139    -0.5280     1.1936 H       
  37 H37            4.6262     1.0147     1.2113 H       
  38 H38            1.7619    -0.5208    -4.8640 H       
@<TRIPOS>BOND
   1    1    2 ar
   2    1    7 1
   3    1    6 ar
   4    2    3 ar
   5    2   10 1
   6    3    4 ar
   7    3   26 1
   8    4    5 ar
   9    4   11 1
  10    5    6 ar
  11    5   14 1
  12    6   27 1
  13    7    8 2
  14    8    9 1
  15    8   28 1
  16    9   10 am
  17    9   18 1
  18   10   17 2
  19   11   12 2
  20   12   13 1
  21   13   14 am
  22   13   16 1
  23   14   15 2
  24   16   29 1
  25   16   30 1
  26   16   31 1
  27   18   19 1
  28   18   20 1
  29   18   32 1
  30   19   21 1
  31   19   33 1
  32   19   34 1
  33   20   35 1
  34   20   36 1
  35   20   37 1
  36   21   22 1
  37   21   25 1
  38   22   23 2
  39   23   24 1
  40   23   38 1
  41   24   25 2

#	End of record

