#	Name: ASD03091274
#	Creating user name:	WinNT
#	Creation time:	15. 06. 2019 20:30

#	Modifying user name:	WinNT
#	Modification time:	15. 06. 2019 20:30

#	Program:	/corina/corina34_cracker 3.40 0067  02.08.2006

@<TRIPOS>MOLECULE
ASD03091274
  48   52    0    0    0
SMALL
NO_CHARGES


@<TRIPOS>ATOM
   1 N1            -0.2584     1.9561    -0.0707 N.2     
   2 C2            -0.3475     0.6527    -0.1375 C.2     
   3 N3             0.7463    -0.1696    -0.1778 N.am    
   4 C4             1.9954     0.3506    -0.1487 C.2     
   5 C5             2.1195     1.8139    -0.0737 C.ar    
   6 C6             3.3614     2.4441    -0.0390 C.ar    
   7 C7             3.4197     3.8258     0.0317 C.ar    
   8 C8             2.2474     4.5811     0.0680 C.ar    
   9 C9             1.0234     3.9776     0.0351 C.ar    
  10 C10            0.9346     2.5839    -0.0367 C.ar    
  11 O11            2.9790    -0.3658    -0.1829 O.2     
  12 C12            5.6840     3.6188     0.7557 C.3     
  13 N13            4.6608     4.4675     0.0675 N.3     
  14 C14            4.5850     5.7281     0.8447 C.3     
  15 C15            5.6479     5.5719     1.9759 C.3     
  16 N16            5.0557     4.5492     2.8948 N.3     
  17 C17            5.0326     3.2780     2.1318 C.3     
  18 C18            6.7174     4.7086     1.2157 C.3     
  19 C19            3.7018     4.9375     3.3120 C.3     
  20 C20            0.5636    -1.6213    -0.2524 C.3     
  21 C21           -1.6909     0.0396    -0.1706 C.ar    
  22 C22           -2.0574    -0.7922    -1.2333 C.ar    
  23 C23           -3.3161    -1.3630    -1.2574 C.ar    
  24 C24           -4.2117    -1.1130    -0.2341 C.ar    
  25 C25           -3.8549    -0.2896     0.8220 C.ar    
  26 C26           -2.5985     0.2832     0.8617 C.ar    
  27 F27           -4.7363    -0.0503     1.8176 F       
  28 F28           -1.1836    -1.0371    -2.2341 F       
  29 H29            4.2698     1.8608    -0.0666 H       
  30 H30            2.3091     5.6580     0.1231 H       
  31 H31            0.1247     4.5758     0.0646 H       
  32 H32            6.0714     2.7754     0.1841 H       
  33 H33            4.8302     6.5795     0.2098 H       
  34 H34            3.5904     5.8489     1.2739 H       
  35 H35            5.9935     6.4942     2.4429 H       
  36 H36            4.0060     2.9396     1.9912 H       
  37 H37            5.6159     2.5158     2.6484 H       
  38 H38            7.4758     4.3038     1.8859 H       
  39 H39            7.1589     5.2424     0.3742 H       
  40 H40            3.0238     4.8615     2.4619 H       
  41 H41            3.3625     4.2744     4.1078 H       
  42 H42            3.7143     5.9649     3.6759 H       
  43 H43            0.4468    -1.9197    -1.2942 H       
  44 H44            1.4348    -2.1194     0.1728 H       
  45 H45           -0.3269    -1.9047     0.3088 H       
  46 H46           -3.6008    -2.0053    -2.0776 H       
  47 H47           -5.1940    -1.5612    -0.2581 H       
  48 H48           -2.3204     0.9214     1.6874 H       
@<TRIPOS>BOND
   1    1    2 2
   2    1   10 1
   3    2    3 1
   4    2   21 1
   5    3    4 am
   6    3   20 1
   7    4    5 1
   8    4   11 2
   9    5    6 ar
  10    5   10 ar
  11    6    7 ar
  12    6   29 1
  13    7    8 ar
  14    7   13 1
  15    8    9 ar
  16    8   30 1
  17    9   10 ar
  18    9   31 1
  19   12   13 1
  20   12   17 1
  21   12   18 1
  22   12   32 1
  23   13   14 1
  24   14   15 1
  25   14   33 1
  26   14   34 1
  27   15   16 1
  28   15   18 1
  29   15   35 1
  30   16   17 1
  31   16   19 1
  32   17   36 1
  33   17   37 1
  34   18   38 1
  35   18   39 1
  36   19   40 1
  37   19   41 1
  38   19   42 1
  39   20   43 1
  40   20   44 1
  41   20   45 1
  42   21   22 ar
  43   21   26 ar
  44   22   23 ar
  45   22   28 1
  46   23   24 ar
  47   23   46 1
  48   24   25 ar
  49   24   47 1
  50   25   26 ar
  51   25   27 1
  52   26   48 1

#	End of record

