#	Name: ASD05430489
#	Creating user name:	WinNT
#	Creation time:	15. 06. 2019 21:00

#	Modifying user name:	WinNT
#	Modification time:	15. 06. 2019 21:00

#	Program:	/corina/corina34_cracker 3.40 0067  02.08.2006

@<TRIPOS>MOLECULE
ASD05430489
  56   58    0    0    0
SMALL
NO_CHARGES


@<TRIPOS>ATOM
   1 C1            -0.0664     1.3468     0.9781 C.ar    
   2 C2            -0.0479    -0.0466     0.9155 C.ar    
   3 C3            -1.2329    -0.7543     0.7546 C.ar    
   4 C4            -2.4316    -0.0834     0.6562 C.ar    
   5 C5            -2.4582     1.3145     0.7185 C.ar    
   6 C6            -1.2656     2.0266     0.8863 C.ar    
   7 C7            -4.8867     1.3441     0.4561 C.2     
   8 C8            -3.7369     2.0328     0.6132 C.2     
   9 N9            -7.3074     1.3710     0.1944 N.am    
  10 C10           -6.1590     2.0588     0.3513 C.2     
  11 O11            1.0951     2.0357     1.1352 O.3     
  12 C12            1.0018     3.4606     1.1912 C.3     
  13 C13            1.4422    -1.7896     1.8456 C.2     
  14 N14            1.1679    -0.7340     1.0146 N.pl3   
  15 C15            2.7212    -2.1433     1.6176 C.2     
  16 N16            3.2192    -1.3298     0.6745 N.2     
  17 C17            2.2988    -0.4813     0.3052 C.2     
  18 C18            3.4651    -3.2598     2.3040 C.3     
  19 C19           -9.7076     1.0925    -0.0303 C.ar    
  20 C20           -9.4662    -0.1653    -0.5510 C.ar    
  21 C21          -11.7720    -0.7357    -0.2400 C.ar    
  22 C22          -12.0125     0.5241     0.2817 C.ar    
  23 C23          -10.9801     1.4369     0.3858 C.ar    
  24 F24          -12.7805    -1.6288    -0.3423 F       
  25 C25          -10.4971    -1.0796    -0.6564 C.ar    
  26 C26           -8.5814     2.0866     0.0894 C.3     
  27 O27           -6.1804     3.2745     0.4057 O.2     
  28 C28           -8.7859     2.9314     1.3205 C.2     
  29 O29           -8.3550     2.4938     2.5140 O.3     
  30 O30           -9.3378     4.0027     1.2332 O.2     
  31 C31           -8.5608     2.9856    -1.1484 C.3     
  32 C32           -8.5859     3.3599     3.6563 C.3     
  33 H33           -1.2138    -1.8330     0.7064 H       
  34 H34           -3.3510    -0.6360     0.5304 H       
  35 H35           -1.2814     3.1054     0.9353 H       
  36 H36           -4.8678     0.2654     0.4078 H       
  37 H37           -3.7559     3.1116     0.6615 H       
  38 H38           -7.2903     0.4021     0.1510 H       
  39 H39            0.3731     3.7507     2.0330 H       
  40 H40            1.9977     3.8852     1.3181 H       
  41 H41            0.5636     3.8327     0.2651 H       
  42 H42            0.7640    -2.2465     2.5511 H       
  43 H43            2.4163     0.2918    -0.4397 H       
  44 H44            3.3334    -4.1839     1.7412 H       
  45 H45            4.5256    -3.0129     2.3542 H       
  46 H46            3.0743    -3.3902     3.3132 H       
  47 H47           -8.4717    -0.4333    -0.8757 H       
  48 H48          -13.0066     0.7935     0.6068 H       
  49 H49          -11.1675     2.4197     0.7927 H       
  50 H50          -10.3084    -2.0618    -1.0638 H       
  51 H51           -8.4129     2.3745    -2.0388 H       
  52 H52           -9.5087     3.5181    -1.2265 H       
  53 H53           -7.7463     3.7047    -1.0618 H       
  54 H54           -8.1901     2.8882     4.5558 H       
  55 H55           -8.0844     4.3143     3.4959 H       
  56 H56           -9.6564     3.5273     3.7748 H       
@<TRIPOS>BOND
   1    1    2 ar
   2    1   11 1
   3    1    6 ar
   4    2    3 ar
   5    2   14 1
   6    3    4 ar
   7    3   33 1
   8    4    5 ar
   9    4   34 1
  10    5    6 ar
  11    5    8 1
  12    6   35 1
  13    7    8 2
  14    7   10 1
  15    7   36 1
  16    8   37 1
  17    9   10 am
  18    9   26 1
  19    9   38 1
  20   10   27 2
  21   11   12 1
  22   12   39 1
  23   12   40 1
  24   12   41 1
  25   13   14 1
  26   13   15 2
  27   13   42 1
  28   14   17 1
  29   15   16 1
  30   15   18 1
  31   16   17 2
  32   17   43 1
  33   18   44 1
  34   18   45 1
  35   18   46 1
  36   19   20 ar
  37   19   23 ar
  38   19   26 1
  39   20   25 ar
  40   20   47 1
  41   21   22 ar
  42   21   24 1
  43   21   25 ar
  44   22   23 ar
  45   22   48 1
  46   23   49 1
  47   25   50 1
  48   26   28 1
  49   26   31 1
  50   28   29 1
  51   28   30 2
  52   29   32 1
  53   31   51 1
  54   31   52 1
  55   31   53 1
  56   32   54 1
  57   32   55 1
  58   32   56 1

#	End of record

