#	Name: ASD01912105
#	Creating user name:	WinNT
#	Creation time:	15. 06. 2019 19:59

#	Modifying user name:	WinNT
#	Modification time:	15. 06. 2019 19:59

#	Program:	/corina/corina34_cracker 3.40 0067  02.08.2006

@<TRIPOS>MOLECULE
ASD01912105
  59   63    0    0    0
SMALL
NO_CHARGES


@<TRIPOS>ATOM
   1 C1            -0.0163     1.3545     0.0095 C.2     
   2 C2             0.0021    -0.0041     0.0020 C.2     
   3 N3             1.2911    -0.4003    -0.0124 N.2     
   4 C4             2.0640     0.6495    -0.0142 C.2     
   5 N5             1.2891     1.7658    -0.0008 N.pl3   
   6 C6             1.7429     3.0932     0.0013 C.ar    
   7 C7             1.2275     4.0052    -0.9095 C.ar    
   8 C8             1.6751     5.3118    -0.9057 C.ar    
   9 C9             2.6373     5.7123     0.0061 C.ar    
  10 C10            3.1529     4.8037     0.9152 C.ar    
  11 C11            2.7036     3.4978     0.9180 C.ar    
  12 C12           -1.1851    -0.8937     0.0090 C.ar    
  13 C13           -1.0220    -2.2777    -0.0000 C.ar    
  14 C14           -2.1300    -3.1005     0.0070 C.ar    
  15 C15           -3.4006    -2.5539     0.0230 C.ar    
  16 C16           -3.5684    -1.1809     0.0316 C.ar    
  17 C17           -2.4675    -0.3485     0.0305 C.ar    
  18 C18            3.5708     0.6286    -0.0287 C.3     
  19 C19            4.0595     0.6299    -1.4542 C.2     
  20 N20            5.3820     0.6129    -1.7132 N.am    
  21 O21            3.2627     0.6462    -2.3684 O.2     
  22 C22           -4.6065    -3.4576     0.0307 C.3     
  23 C23            5.8804     0.6138    -3.0970 C.3     
  24 C24            6.9179     1.7324    -3.2401 C.3     
  25 N25            7.9510     1.5726    -2.2080 N.3     
  26 C26            7.3838     1.7123    -0.8601 C.3     
  27 C27            6.3654     0.5991    -0.6195 C.3     
  28 C28            8.9901     2.4656    -2.4039 C.ar    
  29 F29            3.0740     6.9907     0.0084 F       
  30 N30           10.0135     2.4617    -1.5623 N.ar    
  31 C31           11.0226     3.3020    -1.7211 C.ar    
  32 C32           11.0000     4.1928    -2.7827 C.ar    
  33 C33            9.9143     4.1699    -3.6440 C.ar    
  34 N34            8.9404     3.3003    -3.4316 N.ar    
  35 H35           -0.8915     1.9872     0.0173 H       
  36 H36            0.4773     3.6931    -1.6210 H       
  37 H37            1.2746     6.0215    -1.6144 H       
  38 H38            3.9036     5.1177     1.6253 H       
  39 H39            3.1059     2.7895     1.6272 H       
  40 H40           -0.0305    -2.7056    -0.0129 H       
  41 H41           -2.0048    -4.1732    -0.0003 H       
  42 H42           -4.5627    -0.7595     0.0437 H       
  43 H43           -2.5996     0.7233     0.0375 H       
  44 H44            3.9514     1.5105     0.4867 H       
  45 H45            3.9266    -0.2693     0.4766 H       
  46 H46           -4.8867    -3.6810     1.0601 H       
  47 H47           -5.4362    -2.9606    -0.4720 H       
  48 H48           -4.3689    -4.3849    -0.4906 H       
  49 H49            6.3446    -0.3469    -3.3196 H       
  50 H50            5.0530     0.7917    -3.7840 H       
  51 H51            7.3780     1.6778    -4.2267 H       
  52 H52            6.4294     2.6992    -3.1191 H       
  53 H53            8.1817     1.6432    -0.1208 H       
  54 H54            6.8888     2.6795    -0.7723 H       
  55 H55            5.8597     0.7648     0.3317 H       
  56 H56            6.8736    -0.3650    -0.6042 H       
  57 H57           11.8538     3.2944    -1.0316 H       
  58 H58           11.8107     4.8899    -2.9354 H       
  59 H59            9.8659     4.8511    -4.4807 H       
@<TRIPOS>BOND
   1    1    2 2
   2    1    5 1
   3    1   35 1
   4    2    3 1
   5    2   12 1
   6    3    4 2
   7    4    5 1
   8    4   18 1
   9    5    6 1
  10    6    7 ar
  11    6   11 ar
  12    7    8 ar
  13    7   36 1
  14    8    9 ar
  15    8   37 1
  16    9   10 ar
  17    9   29 1
  18   10   11 ar
  19   10   38 1
  20   11   39 1
  21   12   13 ar
  22   12   17 ar
  23   13   14 ar
  24   13   40 1
  25   14   15 ar
  26   14   41 1
  27   15   16 ar
  28   15   22 1
  29   16   17 ar
  30   16   42 1
  31   17   43 1
  32   18   19 1
  33   18   44 1
  34   18   45 1
  35   19   20 am
  36   19   21 2
  37   20   23 1
  38   20   27 1
  39   22   46 1
  40   22   47 1
  41   22   48 1
  42   23   24 1
  43   23   49 1
  44   23   50 1
  45   24   25 1
  46   24   51 1
  47   24   52 1
  48   25   26 1
  49   25   28 1
  50   26   27 1
  51   26   53 1
  52   26   54 1
  53   27   55 1
  54   27   56 1
  55   28   30 ar
  56   28   34 ar
  57   30   31 ar
  58   31   32 ar
  59   31   57 1
  60   32   33 ar
  61   32   58 1
  62   33   34 ar
  63   33   59 1

#	End of record

