#	Name: ASD05740049
#	Creating user name:	WinNT
#	Creation time:	15. 06. 2019 21:02

#	Modifying user name:	WinNT
#	Modification time:	15. 06. 2019 21:02

#	Program:	/corina/corina34_cracker 3.40 0067  02.08.2006

@<TRIPOS>MOLECULE
ASD05740049
  42   45    0    0    0
SMALL
NO_CHARGES


@<TRIPOS>ATOM
   1 S1             0.5125     2.1283     0.0645 S.3     
   2 N2             2.8875    -3.7914     0.5704 N.ar    
   3 C3             1.7360    -4.4460     0.6392 C.ar    
   4 C4             2.9436    -2.4866     0.3991 C.ar    
   5 C5             1.7664    -1.7446     0.2821 C.ar    
   6 C6             0.5240    -2.4097     0.3464 C.ar    
   7 C7             0.5217    -3.7844     0.5302 C.ar    
   8 C8             1.7908    -0.2917     0.0973 C.2     
   9 C9             0.6080     0.3801     0.2634 C.2     
  10 C10           -0.5778    -0.4142     0.6143 C.2     
  11 O11           -0.6246    -1.7093     0.2265 O.3     
  12 C12           -0.5156     2.3102    -1.3548 C.2     
  13 S13           -1.1115     0.9890    -2.3507 S.3     
  14 O14           -1.4970     0.0821     1.2393 O.2     
  15 O15            1.7460    -5.7903     0.8194 O.3     
  16 C16            2.9474    -6.4097     0.9221 C.2     
  17 C17            3.0626     0.4335    -0.2597 C.3     
  18 C18           -0.9684     3.4780    -1.8375 C.2     
  19 C19           -1.7692     3.3674    -2.9659 C.2     
  20 C20           -1.9586     2.1174    -3.4001 C.2     
  21 N21           -2.3325     4.4860    -3.6079 N.am    
  22 S22           -3.9515     4.7995    -3.4563 S.o2    
  23 C23           -4.1810     5.1522    -1.6918 C.3     
  24 O24           -4.1550     5.9738    -4.2301 O.2     
  25 O25           -4.5800     3.5739    -3.8057 O.2     
  26 N26            4.0962    -5.8140     0.8668 N.2     
  27 S27            3.1665    -8.0898     1.1507 S.3     
  28 C28            4.9147    -7.8724     1.1502 C.2     
  29 C29            5.1698    -6.5734     0.9851 C.2     
  30 H30            3.9014    -1.9901     0.3486 H       
  31 H31           -0.4087    -4.3298     0.5874 H       
  32 H32            3.2053     0.4065    -1.3399 H       
  33 H33            2.9955     1.4696     0.0722 H       
  34 H34            3.9070    -0.0511     0.2306 H       
  35 H35           -0.7289     4.4283    -1.3837 H       
  36 H36           -2.5503     1.8414    -4.2604 H       
  37 H37           -1.7724     5.0734    -4.1392 H       
  38 H38           -3.5059     5.9533    -1.3906 H       
  39 H39           -5.2115     5.4593    -1.5137 H       
  40 H40           -3.9633     4.2560    -1.1108 H       
  41 H41            5.6512    -8.6537     1.2670 H       
  42 H42            6.1732    -6.1754     0.9492 H       
@<TRIPOS>BOND
   1    1    9 1
   2    1   12 1
   3    2    3 ar
   4    2    4 ar
   5    3   15 1
   6    3    7 ar
   7    4    5 ar
   8    4   30 1
   9    5    6 ar
  10    5    8 1
  11    6    7 ar
  12    6   11 1
  13    7   31 1
  14    8    9 2
  15    8   17 1
  16    9   10 1
  17   10   11 1
  18   10   14 2
  19   12   13 1
  20   12   18 2
  21   13   20 1
  22   15   16 1
  23   16   27 1
  24   16   26 2
  25   17   32 1
  26   17   33 1
  27   17   34 1
  28   18   19 1
  29   18   35 1
  30   19   20 2
  31   19   21 1
  32   20   36 1
  33   21   22 am
  34   21   37 1
  35   22   23 1
  36   22   24 2
  37   22   25 2
  38   23   38 1
  39   23   39 1
  40   23   40 1
  41   26   29 1
  42   27   28 1
  43   28   29 2
  44   28   41 1
  45   29   42 1

#	End of record

