#	Name: ASD01814740
#	Creating user name:	WinNT
#	Creation time:	15. 06. 2019 19:32

#	Modifying user name:	WinNT
#	Modification time:	15. 06. 2019 19:32

#	Program:	/corina/corina34_cracker 3.40 0067  02.08.2006

@<TRIPOS>MOLECULE
ASD01814740
  58   62    0    0    0
SMALL
NO_CHARGES


@<TRIPOS>ATOM
   1 C1            -0.0184     1.5028     0.0103 C.3     
   2 C2             0.0021    -0.0041     0.0020 C.2     
   3 N3            -1.0473    -0.7732     0.0027 N.2     
   4 C4            -0.6388    -2.0620    -0.0062 C.2     
   5 C5             0.7165    -2.0563    -0.0124 C.2     
   6 O6             1.1037    -0.7664    -0.0131 O.3     
   7 C7            -1.5128    -3.2612    -0.0079 C.ar    
   8 C8            -0.9507    -4.5362    -0.0112 C.ar    
   9 C9            -1.7683    -5.6480    -0.0129 C.ar    
  10 C10           -3.1435    -5.4984    -0.0116 C.ar    
  11 C11           -4.0311    -6.7163    -0.0134 C.3     
  12 C12           -4.3260    -7.1250     1.4068 C.ar    
  13 C13           -3.5704    -8.0797     2.0352 C.ar    
  14 C14           -3.8703    -8.4362     3.3532 C.ar    
  15 N15           -4.8724    -7.8693     4.0102 N.ar    
  16 C16           -5.6302    -6.9438     3.4479 C.ar    
  17 N17           -6.7072    -6.2117     3.8908 N.pl3   
  18 C18           -7.3030    -6.3166     5.2251 C.3     
  19 C19           -7.1395    -5.3712     2.9028 C.2     
  20 C20           -6.3776    -5.5213     1.8054 C.2     
  21 C21           -5.3740    -6.5362     2.1199 C.ar    
  22 C22           -3.0527    -9.4678     4.0286 C.2     
  23 O23           -2.1311    -9.9958     3.4377 O.2     
  24 N24           -3.3297    -9.8219     5.2992 N.am    
  25 C25           -2.5201   -10.8434     5.9680 C.3     
  26 C26           -1.2803   -10.1905     6.5868 C.3     
  27 C27           -0.4819   -11.2507     7.3498 C.3     
  28 O28           -1.3150   -11.8472     8.3459 O.3     
  29 C29           -2.4653   -12.5136     7.8219 C.3     
  30 C30           -3.3435   -11.5041     7.0779 C.3     
  31 C31           -3.7069    -4.2352    -0.0083 C.ar    
  32 C32           -2.8988    -3.1164    -0.0004 C.ar    
  33 H33            1.0042     1.8801     0.0026 H       
  34 H34           -0.5455     1.8639    -0.8728 H       
  35 H35           -0.5286     1.8543     0.9071 H       
  36 H36            1.3629    -2.9215    -0.0201 H       
  37 H37            0.1229    -4.6541    -0.0129 H       
  38 H38           -1.3337    -6.6367    -0.0155 H       
  39 H39           -4.9647    -6.4847    -0.5262 H       
  40 H40           -3.5262    -7.5331    -0.5292 H       
  41 H41           -2.7500    -8.5532     1.5163 H       
  42 H42           -6.8137    -5.6122     5.8978 H       
  43 H43           -8.3665    -6.0850     5.1673 H       
  44 H44           -7.1720    -7.3306     5.6028 H       
  45 H45           -7.9709    -4.6876     2.9909 H       
  46 H46           -6.4842    -4.9901     0.8711 H       
  47 H47           -4.0652    -9.4005     5.7707 H       
  48 H48           -2.2134   -11.5977     5.2434 H       
  49 H49           -0.6602    -9.7655     5.7976 H       
  50 H50           -1.5883    -9.4022     7.2737 H       
  51 H51           -0.1398   -12.0179     6.6551 H       
  52 H52            0.3788   -10.7833     7.8280 H       
  53 H53           -2.1492   -13.2973     7.1334 H       
  54 H54           -3.0334   -12.9559     8.6403 H       
  55 H55           -3.6931   -10.7423     7.7747 H       
  56 H56           -4.1988   -12.0186     6.6399 H       
  57 H57           -4.7812    -4.1241    -0.0074 H       
  58 H58           -3.3397    -2.1305     0.0067 H       
@<TRIPOS>BOND
   1    1    2 1
   2    1   33 1
   3    1   34 1
   4    1   35 1
   5    2    6 1
   6    2    3 2
   7    3    4 1
   8    4    5 2
   9    4    7 1
  10    5    6 1
  11    5   36 1
  12    7   32 ar
  13    7    8 ar
  14    8    9 ar
  15    8   37 1
  16    9   10 ar
  17    9   38 1
  18   10   11 1
  19   10   31 ar
  20   11   12 1
  21   11   39 1
  22   11   40 1
  23   12   21 ar
  24   12   13 ar
  25   13   14 ar
  26   13   41 1
  27   14   15 ar
  28   14   22 1
  29   15   16 ar
  30   16   21 ar
  31   16   17 1
  32   17   18 1
  33   17   19 1
  34   18   42 1
  35   18   43 1
  36   18   44 1
  37   19   20 2
  38   19   45 1
  39   20   21 1
  40   20   46 1
  41   22   23 2
  42   22   24 am
  43   24   25 1
  44   24   47 1
  45   25   30 1
  46   25   26 1
  47   25   48 1
  48   26   27 1
  49   26   49 1
  50   26   50 1
  51   27   28 1
  52   27   51 1
  53   27   52 1
  54   28   29 1
  55   29   30 1
  56   29   53 1
  57   29   54 1
  58   30   55 1
  59   30   56 1
  60   31   32 ar
  61   31   57 1
  62   32   58 1

#	End of record

