#	Name: ASD02030291
#	Creating user name:	WinNT
#	Creation time:	15. 06. 2019 20:15

#	Modifying user name:	WinNT
#	Modification time:	15. 06. 2019 20:15

#	Program:	/corina/corina34_cracker 3.40 0067  02.08.2006

@<TRIPOS>MOLECULE
ASD02030291
  58   62    0    0    0
SMALL
NO_CHARGES


@<TRIPOS>ATOM
   1 N1            -0.0336     1.2445     0.3460 N.am    
   2 C2            -0.2590    -0.2076     0.3685 C.3     
   3 C3            -1.3004    -0.5252     1.4487 C.3     
   4 N4            -2.4534     0.3677     1.2663 N.am    
   5 C5            -2.2281     1.8198     1.2437 C.3     
   6 C6            -1.1873     2.1376     0.1692 C.3     
   7 C7             1.2080     1.7483     0.4904 C.2     
   8 C8             2.3394     0.8486     0.8000 C.2     
   9 N9             3.5684     1.2210     1.0858 N.2     
  10 N10            2.2923    -0.4956     0.8449 N.2     
  11 C11            3.4928    -0.9168     1.1516 C.2     
  12 N12            4.2802     0.1684     1.2994 N.pl3   
  13 C13            5.6422     0.1535     1.6293 C.ar    
  14 O14            1.3977     2.9426     0.3660 O.2     
  15 C15           -3.6951    -0.1361     1.1220 C.2     
  16 C16           -3.8933    -1.5902     1.0406 C.2     
  17 O17           -4.6518     0.6127     1.0590 O.2     
  18 C18            6.3411     1.3465     1.7513 C.ar    
  19 C19            7.6847     1.3283     2.0769 C.ar    
  20 C20            8.3320     0.1223     2.2803 C.ar    
  21 C21            7.6374    -1.0672     2.1587 C.ar    
  22 C22            6.2937    -1.0548     1.8402 C.ar    
  23 C23           -0.7371     3.5935     0.3051 C.3     
  24 Cl24           8.5604     2.8195     2.2300 Cl      
  25 C25           -5.0725    -2.2038     0.7626 C.2     
  26 C26           -4.7974    -3.6400     0.7869 C.ar    
  27 C27           -3.4281    -3.7609     1.0883 C.ar    
  28 O28           -2.9298    -2.5168     1.2250 O.3     
  29 C29           -5.5736    -4.7838     0.5846 C.ar    
  30 C30           -4.9975    -6.0188     0.6806 C.ar    
  31 C31           -3.6471    -6.1439     0.9781 C.ar    
  32 C32           -2.8642    -5.0283     1.1811 C.ar    
  33 C33           -6.3965    -1.5394     0.4854 C.3     
  34 C34           -5.8334    -7.2536     0.4626 C.3     
  35 H35           -0.6280    -0.5357    -0.6032 H       
  36 H36            0.6754    -0.7192     0.5996 H       
  37 H37           -1.6221    -1.5622     1.3530 H       
  38 H38           -0.8654    -0.3640     2.4350 H       
  39 H39           -3.1624     2.3315     1.0127 H       
  40 H40           -1.8590     2.1479     2.2155 H       
  41 H41           -1.6200     1.9765    -0.8182 H       
  42 H42            3.7971    -1.9464     1.2686 H       
  43 H43            5.8361     2.2877     1.5919 H       
  44 H44            9.3816     0.1101     2.5342 H       
  45 H45            8.1454    -2.0070     2.3173 H       
  46 H46            5.7521    -1.9844     1.7458 H       
  47 H47           -0.1977     3.7210     1.2437 H       
  48 H48           -0.0827     3.8507    -0.5278 H       
  49 H49           -1.6101     4.2462     0.2962 H       
  50 H50           -6.6247    -4.6921     0.3537 H       
  51 H51           -3.2053    -7.1267     1.0511 H       
  52 H52           -1.8150    -5.1382     1.4122 H       
  53 H53           -6.4929    -1.3539    -0.5844 H       
  54 H54           -7.2059    -2.1904     0.8156 H       
  55 H55           -6.4482    -0.5934     1.0243 H       
  56 H56           -5.8119    -7.5253    -0.5928 H       
  57 H57           -5.4315    -8.0740     1.0572 H       
  58 H58           -6.8613    -7.0547     0.7658 H       
@<TRIPOS>BOND
   1    1    2 1
   2    1    7 am
   3    1    6 1
   4    2    3 1
   5    2   35 1
   6    2   36 1
   7    3    4 1
   8    3   37 1
   9    3   38 1
  10    4    5 1
  11    4   15 am
  12    5    6 1
  13    5   39 1
  14    5   40 1
  15    6   23 1
  16    6   41 1
  17    7    8 1
  18    7   14 2
  19    8    9 2
  20    8   10 1
  21    9   12 1
  22   10   11 2
  23   11   12 1
  24   11   42 1
  25   12   13 1
  26   13   18 ar
  27   13   22 ar
  28   15   16 1
  29   15   17 2
  30   16   25 2
  31   16   28 1
  32   18   19 ar
  33   18   43 1
  34   19   20 ar
  35   19   24 1
  36   20   21 ar
  37   20   44 1
  38   21   22 ar
  39   21   45 1
  40   22   46 1
  41   23   47 1
  42   23   48 1
  43   23   49 1
  44   25   26 1
  45   25   33 1
  46   26   27 ar
  47   26   29 ar
  48   27   28 1
  49   27   32 ar
  50   29   30 ar
  51   29   50 1
  52   30   31 ar
  53   30   34 1
  54   31   32 ar
  55   31   51 1
  56   32   52 1
  57   33   53 1
  58   33   54 1
  59   33   55 1
  60   34   56 1
  61   34   57 1
  62   34   58 1

#	End of record

