#	Name: ASD01882214
#	Creating user name:	WinNT
#	Creation time:	15. 06. 2019 19:44

#	Modifying user name:	WinNT
#	Modification time:	15. 06. 2019 19:44

#	Program:	/corina/corina34_cracker 3.40 0067  02.08.2006

@<TRIPOS>MOLECULE
ASD01882214
  30   32    0    0    0
SMALL
NO_CHARGES


@<TRIPOS>ATOM
   1 C1            -0.0159     1.3220     0.0093 C.2     
   2 N2             0.0021    -0.0041     0.0020 N.2     
   3 C3             1.1523    -0.6857    -0.0126 C.2     
   4 C4             2.3835     0.0173    -0.0206 C.2     
   5 C5             2.3523     1.3664    -0.0131 C.2     
   6 N6             1.1484     2.0132     0.0019 N.pl3   
   7 O7            -1.0993     2.1290     0.0184 O.3     
   8 C8             0.8540     3.4562     0.0125 C.3     
   9 C9            -0.6831     3.5211     0.0242 C.3     
  10 O10            1.1423    -1.9071    -0.0187 O.2     
  11 C11           -1.1835     4.2242     1.2877 C.3     
  12 O12           -2.6102     4.2985     1.2581 O.3     
  13 C13           -3.2189     4.8986     2.3149 C.ar    
  14 C14           -4.6015     5.0053     2.3513 C.ar    
  15 C15           -5.2182     5.6156     3.4263 C.ar    
  16 C16           -4.4578     6.1206     4.4658 C.ar    
  17 C17           -3.0788     6.0153     4.4314 C.ar    
  18 C18           -2.4586     5.4002     3.3612 C.ar    
  19 Br19          -5.3045     6.9567     5.9355 Br      
  20 H20            3.3237    -0.5140    -0.0321 H       
  21 H21            3.2727     1.9314    -0.0185 H       
  22 H22            1.2651     3.9237     0.9072 H       
  23 H23            1.2480     3.9334    -0.8848 H       
  24 H24           -1.0474     4.0318    -0.8672 H       
  25 H25           -0.8671     3.6616     2.1660 H       
  26 H26           -0.7680     5.2309     1.3319 H       
  27 H27           -5.1954     4.6117     1.5396 H       
  28 H28           -6.2946     5.6988     3.4550 H       
  29 H29           -2.4870     6.4102     5.2440 H       
  30 H30           -1.3823     5.3142     3.3369 H       
@<TRIPOS>BOND
   1    1    2 2
   2    1    6 1
   3    1    7 1
   4    2    3 1
   5    3    4 1
   6    3   10 2
   7    4    5 2
   8    4   20 1
   9    5    6 1
  10    5   21 1
  11    6    8 1
  12    7    9 1
  13    8    9 1
  14    8   22 1
  15    8   23 1
  16    9   11 1
  17    9   24 1
  18   11   12 1
  19   11   25 1
  20   11   26 1
  21   12   13 1
  22   13   14 ar
  23   13   18 ar
  24   14   15 ar
  25   14   27 1
  26   15   16 ar
  27   15   28 1
  28   16   17 ar
  29   16   19 1
  30   17   18 ar
  31   17   29 1
  32   18   30 1

#	End of record

