#	Name: ASD01812906
#	Creating user name:	WinNT
#	Creation time:	15. 06. 2019 19:29

#	Modifying user name:	WinNT
#	Modification time:	15. 06. 2019 19:29

#	Program:	/corina/corina34_cracker 3.40 0067  02.08.2006

@<TRIPOS>MOLECULE
ASD01812906
  56   60    0    0    0
SMALL
NO_CHARGES


@<TRIPOS>ATOM
   1 N1            -0.0158     1.3146     0.0093 N.ar    
   2 C2             0.0021    -0.0041     0.0020 C.ar    
   3 C3             1.1989    -0.7034    -0.0127 C.ar    
   4 C4             2.3830    -0.0017    -0.0202 C.ar    
   5 C5             2.3452     1.3975    -0.0128 C.ar    
   6 C6             1.0958     2.0332     0.0025 C.ar    
   7 C7             3.8374    -0.3895    -0.0358 C.3     
   8 N8             4.5957     0.8678    -0.0366 N.am    
   9 C9             3.7284     1.8956    -0.0233 C.2     
  10 C10            6.0561     0.9836    -0.0497 C.3     
  11 C11            6.5436     1.0305    -1.4749 C.ar    
  12 O12            1.0259     3.3855     0.0100 O.3     
  13 O13            4.0435     3.0700    -0.0203 O.2     
  14 C14            6.6717     2.2475    -2.1196 C.ar    
  15 C15            7.1181     2.2962    -3.4248 C.ar    
  16 C16            7.4399     1.1166    -4.0927 C.ar    
  17 C17            7.3089    -0.1065    -3.4385 C.ar    
  18 C18            6.8666    -0.1433    -2.1316 C.ar    
  19 C19           -0.2061     3.9611     0.0244 C.ar    
  20 C20           -0.8252     4.2495     1.2334 C.ar    
  21 C21           -2.0788     4.8352     1.2446 C.ar    
  22 C22           -0.8452     4.2669    -1.1698 C.ar    
  23 F23           -0.2045     3.9583     2.3975 F       
  24 C24           -2.7151     5.1327     0.0538 C.ar    
  25 C25           -2.0988     4.8525    -1.1517 C.ar    
  26 C26           -4.0804     5.7706     0.0697 C.3     
  27 F27           -0.2436     3.9933    -2.3481 F       
  28 C28           -5.1531     4.6797     0.0668 C.3     
  29 N29            8.0864     2.2479    -6.2226 N.2     
  30 C30            7.9200     1.1628    -5.4964 C.2     
  31 C31            8.2779     0.0532    -6.2866 C.2     
  32 C32            8.6597     0.5135    -7.4979 C.2     
  33 N33            8.5515     1.8595    -7.4854 N.pl3   
  34 C34            8.8653     2.7575    -8.5996 C.3     
  35 H35           -0.9309    -0.5480     0.0080 H       
  36 H36            1.2022    -1.7834    -0.0178 H       
  37 H37            4.0794    -0.9727     0.8527 H       
  38 H38            4.0627    -0.9637    -0.9345 H       
  39 H39            6.3528     1.8969     0.4660 H       
  40 H40            6.4934     0.1225     0.4558 H       
  41 H41            6.4216     3.1612    -1.6010 H       
  42 H42            7.2174     3.2469    -3.9274 H       
  43 H43            7.5570    -1.0238    -3.9517 H       
  44 H44            6.7687    -1.0905    -1.6221 H       
  45 H45           -2.5609     5.0598     2.1845 H       
  46 H46           -2.5983     5.0865    -2.0802 H       
  47 H47           -4.1856     6.3812     0.9665 H       
  48 H48           -4.1983     6.3986    -0.8133 H       
  49 H49           -5.0478     4.0690    -0.8300 H       
  50 H50           -5.0351     4.0517     0.9498 H       
  51 H51           -6.1405     5.1410     0.0783 H       
  52 H52            8.2523    -0.9816    -5.9787 H       
  53 H53            8.9929    -0.0890    -8.3300 H       
  54 H54            9.9122     3.0553    -8.5424 H       
  55 H55            8.6850     2.2425    -9.5432 H       
  56 H56            8.2320     3.6428    -8.5420 H       
@<TRIPOS>BOND
   1    1    2 ar
   2    1    6 ar
   3    2    3 ar
   4    2   35 1
   5    3    4 ar
   6    3   36 1
   7    4    7 1
   8    4    5 ar
   9    5    6 ar
  10    5    9 1
  11    6   12 1
  12    7    8 1
  13    7   37 1
  14    7   38 1
  15    8    9 am
  16    8   10 1
  17    9   13 2
  18   10   11 1
  19   10   39 1
  20   10   40 1
  21   11   14 ar
  22   11   18 ar
  23   12   19 1
  24   14   15 ar
  25   14   41 1
  26   15   16 ar
  27   15   42 1
  28   16   17 ar
  29   16   30 1
  30   17   18 ar
  31   17   43 1
  32   18   44 1
  33   19   20 ar
  34   19   22 ar
  35   20   23 1
  36   20   21 ar
  37   21   24 ar
  38   21   45 1
  39   22   27 1
  40   22   25 ar
  41   24   25 ar
  42   24   26 1
  43   25   46 1
  44   26   28 1
  45   26   47 1
  46   26   48 1
  47   28   49 1
  48   28   50 1
  49   28   51 1
  50   29   30 2
  51   29   33 1
  52   30   31 1
  53   31   32 2
  54   31   52 1
  55   32   33 1
  56   32   53 1
  57   33   34 1
  58   34   54 1
  59   34   55 1
  60   34   56 1

#	End of record

