#	Name: ASD06170043
#	Creating user name:	WinNT
#	Creation time:	15. 06. 2019 21:05

#	Modifying user name:	WinNT
#	Modification time:	15. 06. 2019 21:05

#	Program:	/corina/corina34_cracker 3.40 0067  02.08.2006

@<TRIPOS>MOLECULE
ASD06170043
  60   64    0    0    0
SMALL
NO_CHARGES


@<TRIPOS>ATOM
   1 N1             0.0282    -1.9557     0.7875 N.pl3   
   2 N2             0.1834    -0.7219     0.1486 N.am    
   3 C3             1.5003    -0.5010    -0.0448 C.2     
   4 C4             2.2056    -1.6684     0.5075 C.2     
   5 C5             1.2336    -2.5172     1.0000 C.2     
   6 C6             3.6568    -1.8880     0.5301 C.2     
   7 O7             4.1107    -2.9050     1.0206 O.2     
   8 N8             4.4864    -0.9633     0.0076 N.am    
   9 O9             2.0054     0.4722    -0.5726 O.2     
  10 C10            1.4806    -3.8472     1.6642 C.3     
  11 C11           -1.2552    -2.5472     1.1741 C.3     
  12 C12           -0.8537     0.1396    -0.2277 C.ar    
  13 C13           -2.0226    -0.3756    -0.7721 C.ar    
  14 C14           -3.0446     0.4762    -1.1429 C.ar    
  15 C15           -2.9042     1.8432    -0.9720 C.ar    
  16 C16           -1.7394     2.3591    -0.4293 C.ar    
  17 C17           -0.7172     1.5103    -0.0520 C.ar    
  18 F18           -3.9049     2.6747    -1.3357 F       
  19 C19            5.8729    -1.1188     0.1279 C.ar    
  20 C20            6.4372    -2.3866     0.0698 C.ar    
  21 C21            7.8059    -2.5390     0.1887 C.ar    
  22 C22            8.6159    -1.4238     0.3663 C.ar    
  23 C23            8.0513    -0.1588     0.4246 C.ar    
  24 C24            6.6841    -0.0053     0.2996 C.ar    
  25 O25            9.9626    -1.5733     0.4833 O.3     
  26 N26           12.1652    -1.8677    -2.9910 N.ar    
  27 C27           10.8545    -1.8234    -3.0422 C.ar    
  28 C28           10.0797    -1.7253    -1.8936 C.ar    
  29 C29           10.6933    -1.6705    -0.6542 C.ar    
  30 C30           12.1053    -1.7185    -0.6111 C.ar    
  31 C31           12.7978    -1.6682     0.6075 C.ar    
  32 C32           14.1578    -1.7170     0.6162 C.ar    
  33 C33           14.8774    -1.8170    -0.5780 C.ar    
  34 C34           14.2268    -1.8678    -1.7900 C.ar    
  35 C35           12.8242    -1.8197    -1.8271 C.ar    
  36 O36           16.2345    -1.8640    -0.5421 O.3     
  37 C37           16.8518    -1.8068     0.7454 C.3     
  38 F38            8.3559    -3.7717     0.1328 F       
  39 H39            4.1232    -0.1901    -0.4518 H       
  40 H40            1.4838    -4.6346     0.9105 H       
  41 H41            2.4449    -3.8263     2.1719 H       
  42 H42            0.6917    -4.0427     2.3905 H       
  43 H43           -1.6763    -3.0876     0.3263 H       
  44 H44           -1.1021    -3.2364     2.0046 H       
  45 H45           -1.9420    -1.7576     1.4791 H       
  46 H46           -2.1324    -1.4416    -0.9059 H       
  47 H47           -3.9538     0.0759    -1.5666 H       
  48 H48           -1.6319     3.4255    -0.2969 H       
  49 H49            0.1893     1.9127     0.3754 H       
  50 H50            5.8070    -3.2528    -0.0679 H       
  51 H51            8.6813     0.7075     0.5629 H       
  52 H52            6.2457     0.9809     0.3399 H       
  53 H53           10.3648    -1.8651    -4.0039 H       
  54 H54            9.0028    -1.6901    -1.9674 H       
  55 H55           12.2530    -1.5907     1.5368 H       
  56 H56           14.6873    -1.6777     1.5567 H       
  57 H57           14.7920    -1.9447    -2.7071 H       
  58 H58           16.5779    -0.8741     1.2386 H       
  59 H59           16.5135    -2.6495     1.3483 H       
  60 H60           17.9348    -1.8531     0.6315 H       
@<TRIPOS>BOND
   1    1    2 1
   2    1    5 1
   3    1   11 1
   4    2    3 am
   5    2   12 1
   6    3    4 1
   7    3    9 2
   8    4    5 2
   9    4    6 1
  10    5   10 1
  11    6    7 2
  12    6    8 am
  13    8   19 1
  14    8   39 1
  15   10   40 1
  16   10   41 1
  17   10   42 1
  18   11   43 1
  19   11   44 1
  20   11   45 1
  21   12   13 ar
  22   12   17 ar
  23   13   14 ar
  24   13   46 1
  25   14   15 ar
  26   14   47 1
  27   15   16 ar
  28   15   18 1
  29   16   17 ar
  30   16   48 1
  31   17   49 1
  32   19   20 ar
  33   19   24 ar
  34   20   21 ar
  35   20   50 1
  36   21   22 ar
  37   21   38 1
  38   22   23 ar
  39   22   25 1
  40   23   24 ar
  41   23   51 1
  42   24   52 1
  43   25   29 1
  44   26   27 ar
  45   26   35 ar
  46   27   28 ar
  47   27   53 1
  48   28   29 ar
  49   28   54 1
  50   29   30 ar
  51   30   31 ar
  52   30   35 ar
  53   31   32 ar
  54   31   55 1
  55   32   33 ar
  56   32   56 1
  57   33   34 ar
  58   33   36 1
  59   34   35 ar
  60   34   57 1
  61   36   37 1
  62   37   58 1
  63   37   59 1
  64   37   60 1

#	End of record

