#	Name: ASD02039429
#	Creating user name:	WinNT
#	Creation time:	15. 06. 2019 20:18

#	Modifying user name:	WinNT
#	Modification time:	15. 06. 2019 20:18

#	Program:	/corina/corina34_cracker 3.40 0067  02.08.2006

@<TRIPOS>MOLECULE
ASD02039429
  58   62    0    0    0
SMALL
NO_CHARGES


@<TRIPOS>ATOM
   1 C1             0.0463     1.1602     0.0252 C.ar    
   2 C2             0.2685    -0.2034     0.0924 C.ar    
   3 C3             1.2136     2.1132     0.0348 C.3     
   4 N4             1.7354     2.2600    -1.3263 N.am    
   5 C5             1.3374     3.2948    -2.0926 C.2     
   6 C6             0.2937     4.2134    -1.6056 C.2     
   7 C7            -0.2770     5.2322    -2.3109 C.2     
   8 N8            -0.2797     4.1966    -0.3751 N.2     
   9 C9            -1.1585     5.1545    -0.3071 C.2     
  10 N10           -1.1825     5.8178    -1.4924 N.pl3   
  11 O11            1.8400     3.4702    -3.1861 O.2     
  12 C12           -2.0347     6.9621    -1.8250 C.3     
  13 C13            2.6897     1.2819    -1.8543 C.3     
  14 C14           -0.7972    -1.0848     0.0837 C.ar    
  15 C15           -2.3203     0.7685    -0.0710 C.ar    
  16 C16           -1.2416     1.6500    -0.0563 C.ar    
  17 C17           -3.7065     1.2892    -0.1590 C.ar    
  18 C18           -4.1347     2.3098     0.7053 C.ar    
  19 C19           -2.0918    -0.6064     0.0072 C.ar    
  20 C20           -4.5871     0.7757    -1.0992 C.ar    
  21 C21           -5.8894     1.3038    -1.1411 C.ar    
  22 C22           -6.2475     2.3297    -0.2304 C.ar    
  23 N23           -5.3515     2.7884     0.6504 N.ar    
  24 C24           -6.8366     0.8345    -2.0662 C.ar    
  25 C25           -7.5499     2.8560    -0.2742 C.ar    
  26 C26            2.1384     0.6751    -3.1482 C.3     
  27 C27            3.1757    -0.2865    -3.7341 C.3     
  28 O28            4.3992     0.4159    -3.9620 O.3     
  29 C29            4.9858     0.9646    -2.7801 C.3     
  30 C30            4.0213     1.9764    -2.1559 C.3     
  31 C31           -8.4428     2.3774    -1.1835 C.ar    
  32 C32           -8.0885     1.3699    -2.0780 C.ar    
  33 F33           -3.1327    -1.4676    -0.0022 F       
  34 H34            1.2785    -0.5814     0.1516 H       
  35 H35            0.8865     3.0847     0.4052 H       
  36 H36            1.9969     1.7218     0.6839 H       
  37 H37           -0.0497     5.5172    -3.3275 H       
  38 H38           -1.7718     5.3831     0.5519 H       
  39 H39           -1.5201     7.8866    -1.5632 H       
  40 H40           -2.2502     6.9562    -2.8935 H       
  41 H41           -2.9678     6.8948    -1.2657 H       
  42 H42            2.8470     0.4924    -1.1194 H       
  43 H43           -0.6176    -2.1485     0.1364 H       
  44 H44           -1.4125     2.7148    -0.1162 H       
  45 H45           -3.4436     2.7090     1.4329 H       
  46 H46           -4.2816    -0.0061    -1.7789 H       
  47 H47           -6.5733     0.0536    -2.7642 H       
  48 H48           -7.8415     3.6376     0.4116 H       
  49 H49            1.2186     0.1314    -2.9326 H       
  50 H50            1.9332     1.4703    -3.8649 H       
  51 H51            3.3504    -1.1033    -3.0339 H       
  52 H52            2.8064    -0.6888    -4.6774 H       
  53 H53            5.1842     0.1641    -2.0674 H       
  54 H54            5.9204     1.4635    -3.0362 H       
  55 H55            3.8540     2.7979    -2.8525 H       
  56 H56            4.4480     2.3635    -1.2306 H       
  57 H57           -9.4422     2.7859    -1.2123 H       
  58 H58           -8.8161     1.0088    -2.7898 H       
@<TRIPOS>BOND
   1    1    2 ar
   2    1    3 1
   3    1   16 ar
   4    2   14 ar
   5    2   34 1
   6    3    4 1
   7    3   35 1
   8    3   36 1
   9    4    5 am
  10    4   13 1
  11    5    6 1
  12    5   11 2
  13    6    7 2
  14    6    8 1
  15    7   10 1
  16    7   37 1
  17    8    9 2
  18    9   10 1
  19    9   38 1
  20   10   12 1
  21   12   39 1
  22   12   40 1
  23   12   41 1
  24   13   26 1
  25   13   30 1
  26   13   42 1
  27   14   19 ar
  28   14   43 1
  29   15   16 ar
  30   15   17 1
  31   15   19 ar
  32   16   44 1
  33   17   20 ar
  34   17   18 ar
  35   18   23 ar
  36   18   45 1
  37   19   33 1
  38   20   21 ar
  39   20   46 1
  40   21   22 ar
  41   21   24 ar
  42   22   23 ar
  43   22   25 ar
  44   24   32 ar
  45   24   47 1
  46   25   31 ar
  47   25   48 1
  48   26   27 1
  49   26   49 1
  50   26   50 1
  51   27   28 1
  52   27   51 1
  53   27   52 1
  54   28   29 1
  55   29   30 1
  56   29   53 1
  57   29   54 1
  58   30   55 1
  59   30   56 1
  60   31   32 ar
  61   31   57 1
  62   32   58 1

#	End of record

