#	Name: ASD02032006
#	Creating user name:	WinNT
#	Creation time:	15. 06. 2019 20:16

#	Modifying user name:	WinNT
#	Modification time:	15. 06. 2019 20:16

#	Program:	/corina/corina34_cracker 3.40 0067  02.08.2006

@<TRIPOS>MOLECULE
ASD02032006
  34   35    0    0    0
SMALL
NO_CHARGES


@<TRIPOS>ATOM
   1 C1            -0.0169     1.3972     0.0097 C.ar    
   2 C2             0.0021    -0.0041     0.0020 C.ar    
   3 C3            -1.2027    -0.7124     0.0102 C.ar    
   4 C4            -2.4044    -0.0264     0.0258 C.ar    
   5 C5            -2.4149     1.3649     0.0329 C.ar    
   6 C6            -1.2290     2.0708     0.0307 C.ar    
   7 O7             1.1482     2.0934     0.0023 O.3     
   8 N8            -3.6121    -0.7337     0.0341 N.pl3   
   9 C9            -4.8853    -0.0091     0.0506 C.3     
  10 C10           -6.0246    -0.9955     0.0567 C.ar    
  11 C11           -6.5358    -1.4548     1.2579 C.ar    
  12 C12           -7.5843    -2.3619     1.2634 C.ar    
  13 C13           -8.1197    -2.8080     0.0678 C.ar    
  14 C14           -7.6087    -2.3483    -1.1334 C.ar    
  15 C15           -6.5634    -1.4376    -1.1389 C.ar    
  16 F16           -6.0650    -0.9885    -2.3115 F       
  17 F17           -8.1314    -2.7838    -2.3006 F       
  18 F18           -8.0830    -2.8106     2.4361 F       
  19 F19           -6.0129    -1.0196     2.4251 F       
  20 C20            1.2864    -0.7273    -0.0151 C.2     
  21 O21            2.3321    -0.1085    -0.0226 O.2     
  22 O22            1.3009    -2.0747    -0.0225 O.3     
  23 C23           -9.2587    -3.7947     0.0738 C.3     
  24 F24          -10.4747    -3.1032     0.0904 F       
  25 F25           -9.1912    -4.5919    -1.0739 F       
  26 F26           -9.1676    -4.6052     1.2105 F       
  27 H27           -1.1959    -1.7924     0.0040 H       
  28 H28           -3.3557     1.8951     0.0444 H       
  29 H29           -1.2450     3.1506     0.0363 H       
  30 H30            1.4774     2.2999    -0.8831 H       
  31 H31           -3.6061    -1.7037     0.0288 H       
  32 H32           -4.9380     0.6124     0.9445 H       
  33 H33           -4.9557     0.6220    -0.8353 H       
  34 H34            2.1671    -2.5044    -0.0338 H       
@<TRIPOS>BOND
   1    1    2 ar
   2    1    7 1
   3    1    6 ar
   4    2    3 ar
   5    2   20 1
   6    3    4 ar
   7    3   27 1
   8    4    5 ar
   9    4    8 1
  10    5    6 ar
  11    5   28 1
  12    6   29 1
  13    7   30 1
  14    8    9 1
  15    8   31 1
  16    9   10 1
  17    9   32 1
  18    9   33 1
  19   10   11 ar
  20   10   15 ar
  21   11   12 ar
  22   11   19 1
  23   12   13 ar
  24   12   18 1
  25   13   14 ar
  26   13   23 1
  27   14   15 ar
  28   14   17 1
  29   15   16 1
  30   20   21 2
  31   20   22 1
  32   22   34 1
  33   23   24 1
  34   23   25 1
  35   23   26 1

#	End of record

