#	Name: ASD03180102
#	Creating user name:	WinNT
#	Creation time:	15. 06. 2019 20:33

#	Modifying user name:	WinNT
#	Modification time:	15. 06. 2019 20:33

#	Program:	/corina/corina34_cracker 3.40 0067  02.08.2006

@<TRIPOS>MOLECULE
ASD03180102
  33   35    0    0    0
SMALL
NO_CHARGES


@<TRIPOS>ATOM
   1 N1            -0.0169     1.3933     0.0097 N.pl3   
   2 C2             0.0043    -0.0034    -0.0320 C.ar    
   3 C3             1.2272    -2.0574    -0.2246 C.ar    
   4 C4             0.0461    -2.7689    -0.1154 C.ar    
   5 C5            -1.1560    -2.1013     0.0301 C.ar    
   6 C6            -1.1804    -0.7210     0.0721 C.ar    
   7 C7             1.2099    -0.6773    -0.1834 C.ar    
   8 C8            -2.4910     0.0058     0.2312 C.3     
   9 N9             1.1708     3.3739     0.5987 N.2     
  10 C10            2.2396     3.8634     1.2267 C.2     
  11 C11            1.0261     2.0849     0.6060 C.2     
  12 S12            2.3589     1.3492     1.4907 S.3     
  13 C13            3.0420     2.9444     1.7954 C.2     
  14 C14            2.5238     5.3130     1.2937 C.2     
  15 C15           -3.0247     0.4026    -1.1467 C.3     
  16 S16            3.9082     6.0404     2.0986 S.3     
  17 C17            3.3687     7.6502     1.6404 C.2     
  18 C18            2.2342     7.5646     0.9417 C.2     
  19 C19            1.7654     6.2811     0.7423 C.2     
  20 H20           -0.7595     1.8790    -0.3821 H       
  21 H21            2.1644    -2.5819    -0.3378 H       
  22 H22            0.0624    -3.8483    -0.1484 H       
  23 H23           -2.0763    -2.6599     0.1150 H       
  24 H24            2.1324    -0.1223    -0.2690 H       
  25 H25           -3.2107    -0.6469     0.7254 H       
  26 H26           -2.3391     0.9013     0.8337 H       
  27 H27            3.9492     3.1497     2.3443 H       
  28 H28           -3.9726     0.9283    -1.0317 H       
  29 H29           -2.3050     1.0552    -1.6409 H       
  30 H30           -3.1766    -0.4929    -1.7492 H       
  31 H31            3.8782     8.5698     1.8875 H       
  32 H32            1.7227     8.4349     0.5577 H       
  33 H33            0.8610     6.0699     0.1910 H       
@<TRIPOS>BOND
   1    1    2 1
   2    1   11 1
   3    1   20 1
   4    2    7 ar
   5    2    6 ar
   6    3    4 ar
   7    3    7 ar
   8    3   21 1
   9    4    5 ar
  10    4   22 1
  11    5    6 ar
  12    5   23 1
  13    6    8 1
  14    7   24 1
  15    8   15 1
  16    8   25 1
  17    8   26 1
  18    9   11 2
  19    9   10 1
  20   10   13 2
  21   10   14 1
  22   11   12 1
  23   12   13 1
  24   13   27 1
  25   14   16 1
  26   14   19 2
  27   15   28 1
  28   15   29 1
  29   15   30 1
  30   16   17 1
  31   17   18 2
  32   17   31 1
  33   18   19 1
  34   18   32 1
  35   19   33 1

#	End of record

