#	Name: ASD03091343
#	Creating user name:	WinNT
#	Creation time:	15. 06. 2019 20:30

#	Modifying user name:	WinNT
#	Modification time:	15. 06. 2019 20:30

#	Program:	/corina/corina34_cracker 3.40 0067  02.08.2006

@<TRIPOS>MOLECULE
ASD03091343
  43   46    0    0    0
SMALL
NO_CHARGES


@<TRIPOS>ATOM
   1 C1            -0.0187     1.5261     0.0104 C.3     
   2 C2             0.0021    -0.0041     0.0020 C.3     
   3 N3             0.7064    -0.4787    -1.1959 N.3     
   4 C4             2.1034    -0.0262    -1.2048 C.3     
   5 C5             2.1454     1.5033    -1.2324 C.3     
   6 C6             1.4196     2.0513    -0.0005 C.3     
   7 N7             1.4059     3.5153    -0.0513 N.pl3   
   8 C8             1.9394     4.3415     0.8687 C.2     
   9 C9             1.7155     5.6243     0.4513 C.2     
  10 C10            1.0171     5.5552    -0.7725 C.2     
  11 N11            0.8411     4.2952    -1.0675 N.2     
  12 C12            2.1289     6.8577     1.1541 C.2     
  13 C13            2.7992     7.9209     0.6170 C.2     
  14 C14            2.9402     8.8184     1.7065 C.2     
  15 N15            2.3721     8.2394     2.7368 N.2     
  16 O16            1.9149     7.1585     2.4473 O.3     
  17 C17            3.6002    10.1478     1.6847 C.ar    
  18 C18            3.6595    10.9188     2.8452 C.ar    
  19 C19            4.2755    12.1549     2.8186 C.ar    
  20 C20            4.8324    12.6274     1.6441 C.ar    
  21 C21            4.7761    11.8663     0.4906 C.ar    
  22 C22            4.1678    10.6273     0.5066 C.ar    
  23 C23            2.6536     3.9274     2.1295 C.3     
  24 Cl24           2.9603    10.3267     4.3197 Cl      
  25 H25           -0.5449     1.8878    -0.8730 H       
  26 H26           -0.5279     1.8782     0.9076 H       
  27 H27            0.5163    -0.3652     0.8927 H       
  28 H28           -1.0206    -0.3811    -0.0047 H       
  29 H29            0.6512    -1.4832    -1.2736 H       
  30 H30            2.6078    -0.3873    -0.3085 H       
  31 H31            2.6069    -0.4194    -2.0879 H       
  32 H32            3.1823     1.8391    -1.2232 H       
  33 H33            1.6532     1.8646    -2.1353 H       
  34 H34            1.9345     1.7220     0.9021 H       
  35 H35            0.6890     6.3970    -1.3642 H       
  36 H36            3.1419     8.0478    -0.3993 H       
  37 H37            4.3220    12.7535     3.7164 H       
  38 H38            5.3128    13.5946     1.6275 H       
  39 H39            5.2124    12.2406    -0.4237 H       
  40 H40            4.1282    10.0325    -0.3940 H       
  41 H41            3.7186     3.8178     1.9245 H       
  42 H42            2.5077     4.6882     2.8963 H       
  43 H43            2.2513     2.9768     2.4795 H       
@<TRIPOS>BOND
   1    1    2 1
   2    1    6 1
   3    1   25 1
   4    1   26 1
   5    2    3 1
   6    2   27 1
   7    2   28 1
   8    3    4 1
   9    3   29 1
  10    4    5 1
  11    4   30 1
  12    4   31 1
  13    5    6 1
  14    5   32 1
  15    5   33 1
  16    6    7 1
  17    6   34 1
  18    7    8 1
  19    7   11 1
  20    8    9 2
  21    8   23 1
  22    9   10 1
  23    9   12 1
  24   10   11 2
  25   10   35 1
  26   12   13 2
  27   12   16 1
  28   13   14 1
  29   13   36 1
  30   14   15 2
  31   14   17 1
  32   15   16 1
  33   17   18 ar
  34   17   22 ar
  35   18   19 ar
  36   18   24 1
  37   19   20 ar
  38   19   37 1
  39   20   21 ar
  40   20   38 1
  41   21   22 ar
  42   21   39 1
  43   22   40 1
  44   23   41 1
  45   23   42 1
  46   23   43 1

#	End of record

