#	Name: ASD01148239
#	Creating user name:	WinNT
#	Creation time:	15. 06. 2019 19:02

#	Modifying user name:	WinNT
#	Modification time:	15. 06. 2019 19:02

#	Program:	/corina/corina34_cracker 3.40 0067  02.08.2006

@<TRIPOS>MOLECULE
ASD01148239
  45   48    0    0    0
SMALL
NO_CHARGES


@<TRIPOS>ATOM
   1 C1            -0.0167     1.3791     0.0096 C.ar    
   2 C2             0.0021    -0.0041     0.0020 C.ar    
   3 C3            -1.1867    -0.7114     0.0101 C.ar    
   4 C4            -2.3937    -0.0352     0.0257 C.ar    
   5 C5            -2.4118     1.3469     0.0333 C.ar    
   6 C6            -1.2242     2.0542     0.0306 C.ar    
   7 C7            -3.7267     2.0828     0.0503 C.3     
   8 O8            -4.7311     1.3288     0.7589 O.3     
   9 C9            -3.6320     3.3664     0.9093 C.3     
  10 C10           -4.1221     2.8930     2.2646 C.2     
  11 N11           -4.7168     1.7582     2.1060 N.2     
  12 C12           -3.9481     3.6067     3.5448 C.ar    
  13 C13           -4.4514     3.0555     4.7260 C.ar    
  14 C14           -3.2753     4.8309     3.5764 C.ar    
  15 C15           -3.1131     5.4965     4.7703 C.ar    
  16 C16           -3.6214     4.9480     5.9505 C.ar    
  17 C17           -4.2892     3.7212     5.9198 C.ar    
  18 C18           -3.4473     5.6625     7.2319 C.2     
  19 O19           -2.8619     6.7274     7.2594 O.2     
  20 N20           -3.9376     5.1334     8.3705 N.am    
  21 C21           -4.1878     2.4076    -1.3720 C.3     
  22 F22           -4.3307     1.2205    -2.0984 F       
  23 F23           -5.4163     3.0751    -1.3230 F       
  24 F24           -3.2379     3.2241    -1.9951 F       
  25 Cl25          -1.1641    -2.4472    -0.0001 Cl      
  26 Cl26           1.4747     2.2676     0.0002 Cl      
  27 C27           -3.7740     5.8048     9.5746 C.ar    
  28 N28           -4.2620     5.2706    10.6837 N.ar    
  29 N29           -3.1290     6.9613     9.5872 N.ar    
  30 C30           -2.9557     7.6267    10.7171 C.ar    
  31 C31           -3.4586     7.0992    11.8962 C.ar    
  32 C32           -4.1236     5.8840    11.8475 C.ar    
  33 H33            0.9444    -0.5315    -0.0105 H       
  34 H34           -3.3218    -0.5873     0.0316 H       
  35 H35           -1.2390     3.1341     0.0365 H       
  36 H36           -2.6012     3.7155     0.9710 H       
  37 H37           -4.2827     4.1460     0.5132 H       
  38 H38           -4.9679     2.1073     4.7023 H       
  39 H39           -2.8821     5.2547     2.6641 H       
  40 H40           -2.5927     6.4425     4.7948 H       
  41 H41           -4.6821     3.2973     6.8322 H       
  42 H42           -4.4047     4.2836     8.3486 H       
  43 H43           -2.4286     8.5693    10.7211 H       
  44 H44           -3.3311     7.6213    12.8330 H       
  45 H45           -4.5278     5.4455    12.7479 H       
@<TRIPOS>BOND
   1    1    2 ar
   2    1   26 1
   3    1    6 ar
   4    2    3 ar
   5    2   33 1
   6    3    4 ar
   7    3   25 1
   8    4    5 ar
   9    4   34 1
  10    5    6 ar
  11    5    7 1
  12    6   35 1
  13    7    8 1
  14    7    9 1
  15    7   21 1
  16    8   11 1
  17    9   10 1
  18    9   36 1
  19    9   37 1
  20   10   11 2
  21   10   12 1
  22   12   13 ar
  23   12   14 ar
  24   13   17 ar
  25   13   38 1
  26   14   15 ar
  27   14   39 1
  28   15   16 ar
  29   15   40 1
  30   16   17 ar
  31   16   18 1
  32   17   41 1
  33   18   19 2
  34   18   20 am
  35   20   27 1
  36   20   42 1
  37   21   22 1
  38   21   23 1
  39   21   24 1
  40   27   28 ar
  41   27   29 ar
  42   28   32 ar
  43   29   30 ar
  44   30   31 ar
  45   30   43 1
  46   31   32 ar
  47   31   44 1
  48   32   45 1

#	End of record

