#	Name: ASD01411601
#	Creating user name:	WinNT
#	Creation time:	15. 06. 2019 19:19

#	Modifying user name:	WinNT
#	Modification time:	15. 06. 2019 19:19

#	Program:	/corina/corina34_cracker 3.40 0067  02.08.2006

@<TRIPOS>MOLECULE
ASD01411601
  77   80    0    0    0
SMALL
NO_CHARGES


@<TRIPOS>ATOM
   1 N1            -0.0164     1.3588     0.0095 N.am    
   2 C2             0.0021    -0.0041     0.0020 C.2     
   3 N3             1.1271    -0.6834    -0.0124 N.2     
   4 C4             2.3113    -0.0603    -0.0203 C.2     
   5 C5             2.3589     1.3384    -0.0132 C.2     
   6 C6             1.1406     2.0571     0.0022 C.2     
   7 C7             4.4057     0.6263    -0.0372 C.2     
   8 N8             3.6660     1.6965    -0.0242 N.2     
   9 O9             1.1346     3.2763     0.0084 O.2     
  10 N10           -1.1884    -0.6866     0.0102 N.pl3   
  11 N11            3.6125    -0.4843    -0.0354 N.pl3   
  12 C12            5.3569    -3.3225    -1.5253 C.3     
  13 C13            4.1039    -2.4189    -1.4928 C.3     
  14 C14            4.0702    -1.8759    -0.0470 C.3     
  15 O15            5.4375    -1.9593     0.4105 O.3     
  16 C16            5.9319    -3.2185    -0.0953 C.3     
  17 C17            7.4614    -3.2128    -0.1354 C.3     
  18 O18            6.3008    -2.8353    -2.4812 O.3     
  19 O19            7.9726    -3.1592     1.1979 O.3     
  20 O20            2.9282    -3.1831    -1.7682 O.3     
  21 C21            4.2436    -1.2723    -2.4961 C.3     
  22 P22            9.5472    -3.1389     1.5332 P.3     
  23 N23           10.2161    -4.6415     1.1768 N.3     
  24 O24           10.2117    -2.0973     0.7183 O.2     
  25 O25            9.7590    -2.8141     3.0958 O.3     
  26 C26           11.0182    -2.4209     3.6452 C.3     
  27 C27           10.8685    -2.1914     5.1505 C.3     
  28 S28           12.4634    -1.6933     5.8464 S.3     
  29 C29           12.0251    -1.5073     7.4909 C.2     
  30 C30           13.0589    -1.0857     8.5032 C.3     
  31 O31           10.8822    -1.7148     7.8413 O.2     
  32 C32           12.4110    -0.9950     9.8863 C.3     
  33 O33           13.3913    -0.5953    10.8461 O.3     
  34 C34           14.1899    -2.1157     8.5363 C.3     
  35 C35           13.6253     0.2814     8.1147 C.3     
  36 C36            9.5795    -5.7024     1.9689 C.3     
  37 C37            9.2740    -6.8793     1.0787 C.ar    
  38 C38           10.2102    -7.8830     0.9142 C.ar    
  39 C39            9.9300    -8.9626     0.0976 C.ar    
  40 C40            8.7134    -9.0387    -0.5542 C.ar    
  41 C41            7.7767    -8.0356    -0.3890 C.ar    
  42 C42            8.0553    -6.9581     0.4310 C.ar    
  43 H43           -0.8643     1.8299     0.0161 H       
  44 H44            5.4856     0.6181    -0.0483 H       
  45 H45           -2.0269    -0.1991     0.0211 H       
  46 H46           -1.1913    -1.6566     0.0050 H       
  47 H47            5.0798    -4.3516    -1.7539 H       
  48 H48            3.4219    -2.4930     0.5751 H       
  49 H49            5.5707    -4.0426     0.5198 H       
  50 H50            7.8154    -4.1205    -0.6241 H       
  51 H51            7.8070    -2.3419    -0.6923 H       
  52 H52            7.1071    -3.3655    -2.5431 H       
  53 H53            2.9243    -3.5976    -2.6419 H       
  54 H54            4.3339    -1.6796    -3.5031 H       
  55 H55            3.3633    -0.6319    -2.4408 H       
  56 H56            5.1331    -0.6885    -2.2592 H       
  57 H57           10.1533    -4.8403     0.1895 H       
  58 H58           11.7529    -3.2065     3.4688 H       
  59 H59           11.3507    -1.4988     3.1684 H       
  60 H60           10.1338    -1.4057     5.3269 H       
  61 H61           10.5360    -3.1134     5.6273 H       
  62 H62           11.6053    -0.2613     9.8626 H       
  63 H63           12.0075    -1.9690    10.1630 H       
  64 H64           13.0501    -0.5171    11.7476 H       
  65 H65           14.6514    -2.1803     7.5510 H       
  66 H66           14.9376    -1.8108     9.2685 H       
  67 H67           13.7863    -3.0896     8.8131 H       
  68 H68           12.8196     1.0151     8.0910 H       
  69 H69           14.3730     0.5863     8.8468 H       
  70 H70           14.0869     0.2168     7.1293 H       
  71 H71           10.2540    -6.0151     2.7659 H       
  72 H72            8.6536    -5.3255     2.4034 H       
  73 H73           11.1608    -7.8234     1.4235 H       
  74 H74           10.6618    -9.7463    -0.0314 H       
  75 H75            8.4947    -9.8819    -1.1927 H       
  76 H76            6.8263    -8.0949    -0.8985 H       
  77 H77            7.3235    -6.1743     0.5601 H       
@<TRIPOS>BOND
   1    1    2 1
   2    1    6 am
   3    1   43 1
   4    2    3 2
   5    2   10 1
   6    3    4 1
   7    4    5 2
   8    4   11 1
   9    5    6 1
  10    5    8 1
  11    6    9 2
  12    7    8 2
  13    7   11 1
  14    7   44 1
  15   10   45 1
  16   10   46 1
  17   11   14 1
  18   12   13 1
  19   12   18 1
  20   12   16 1
  21   12   47 1
  22   13   20 1
  23   13   21 1
  24   13   14 1
  25   14   15 1
  26   14   48 1
  27   15   16 1
  28   16   17 1
  29   16   49 1
  30   17   19 1
  31   17   50 1
  32   17   51 1
  33   18   52 1
  34   19   22 1
  35   20   53 1
  36   21   54 1
  37   21   55 1
  38   21   56 1
  39   22   23 1
  40   22   24 2
  41   22   25 1
  42   23   36 1
  43   23   57 1
  44   25   26 1
  45   26   27 1
  46   26   58 1
  47   26   59 1
  48   27   28 1
  49   27   60 1
  50   27   61 1
  51   28   29 1
  52   29   30 1
  53   29   31 2
  54   30   32 1
  55   30   34 1
  56   30   35 1
  57   32   33 1
  58   32   62 1
  59   32   63 1
  60   33   64 1
  61   34   65 1
  62   34   66 1
  63   34   67 1
  64   35   68 1
  65   35   69 1
  66   35   70 1
  67   36   37 1
  68   36   71 1
  69   36   72 1
  70   37   38 ar
  71   37   42 ar
  72   38   39 ar
  73   38   73 1
  74   39   40 ar
  75   39   74 1
  76   40   41 ar
  77   40   75 1
  78   41   42 ar
  79   41   76 1
  80   42   77 1

#	End of record

