#	Name: ASD01812254
#	Creating user name:	WinNT
#	Creation time:	15. 06. 2019 19:28

#	Modifying user name:	WinNT
#	Modification time:	15. 06. 2019 19:28

#	Program:	/corina/corina34_cracker 3.40 0067  02.08.2006

@<TRIPOS>MOLECULE
ASD01812254
  63   67    0    0    0
SMALL
NO_CHARGES


@<TRIPOS>ATOM
   1 C1             0.8801     0.3117     1.9990 C.ar    
   2 C2             1.1178    -1.0117     2.3660 C.ar    
   3 C3             2.3995    -1.4770     2.4464 C.ar    
   4 C4             3.4498    -0.5881     2.1508 C.ar    
   5 C5             3.1374     0.7459     1.7838 C.ar    
   6 N6             1.8600     1.1371     1.7243 N.ar    
   7 C7             4.7925    -0.9985     2.2137 C.ar    
   8 C8             5.7883    -0.1224     1.9248 C.ar    
   9 C9             5.4972     1.2058     1.5585 C.ar    
  10 C10            4.1810     1.6323     1.4890 C.ar    
  11 C11            5.1277    -2.4151     2.6034 C.3     
  12 C12            6.3719     2.3410     1.2006 C.2     
  13 N13            5.6336     3.4286     0.9206 N.am    
  14 C14            4.2161     3.0820     1.0753 C.3     
  15 O15            7.5862     2.2979     1.1649 O.2     
  16 C16            6.1322     4.6800     0.5451 C.ar    
  17 C17            7.5014     4.8776     0.4343 C.ar    
  18 C18            7.9918     6.1193     0.0614 C.ar    
  19 C19            7.1136     7.1612    -0.2001 C.ar    
  20 C20            5.7502     6.9628    -0.0893 C.ar    
  21 C21            5.2573     5.7256     0.2769 C.ar    
  22 N22            4.9496    -3.2975     1.4425 N.3     
  23 C23            5.4890    -4.6365     1.7117 C.3     
  24 C24            5.1577    -5.5660     0.5419 C.3     
  25 C25            5.7673    -4.9986    -0.7430 C.3     
  26 C26            5.2262    -3.5850    -0.9744 C.3     
  27 C27            5.5555    -2.7130     0.2393 C.3     
  28 C28            7.2326    -4.9491    -0.6121 C.1     
  29 F29            5.4206    -5.8148    -1.8250 F       
  30 O30            9.3324     6.3162    -0.0476 O.3     
  31 C31            9.9366     5.8172    -1.1429 C.2     
  32 N32           11.2774     5.8848    -1.2627 N.am    
  33 O33            9.2730     5.3059    -2.0232 O.2     
  34 C34           11.9346     5.3419    -2.4542 C.3     
  35 C35           12.0775     6.5011    -0.2015 C.3     
  36 C36            8.4013    -4.9096    -0.5078 C.1     
  37 H37           -0.1385     0.6649     1.9350 H       
  38 H38            0.2894    -1.6684     2.5869 H       
  39 H39            2.6015    -2.4994     2.7296 H       
  40 H40            6.8167    -0.4479     1.9769 H       
  41 H41            6.1628    -2.4637     2.9413 H       
  42 H42            4.4671    -2.7364     3.4087 H       
  43 H43            3.6923     3.2145     0.1286 H       
  44 H44            3.7604     3.7030     1.8465 H       
  45 H45            8.1835     4.0656     0.6386 H       
  46 H46            7.4959     8.1287    -0.4903 H       
  47 H47            5.0690     7.7756    -0.2931 H       
  48 H48            4.1916     5.5731     0.3628 H       
  49 H49            6.5706    -4.5750     1.8316 H       
  50 H50            5.0443    -5.0302     2.6256 H       
  51 H51            5.5717    -6.5557     0.7349 H       
  52 H52            4.0759    -5.6389     0.4301 H       
  53 H53            5.6891    -3.1593    -1.8647 H       
  54 H54            4.1454    -3.6267    -1.1100 H       
  55 H55            5.1591    -1.7096     0.0839 H       
  56 H56            6.6368    -2.6604     0.3661 H       
  57 H57           12.0101     6.1200    -3.2138 H       
  58 H58           12.9332     4.9929    -2.1911 H       
  59 H59           11.3496     4.5090    -2.8442 H       
  60 H60           11.4195     6.8441     0.5970 H       
  61 H61           12.7799     5.7685     0.1960 H       
  62 H62           12.6283     7.3494    -0.6079 H       
  63 H63            9.4465    -4.8743    -0.4144 H       
@<TRIPOS>BOND
   1    1    2 ar
   2    1    6 ar
   3    1   37 1
   4    2    3 ar
   5    2   38 1
   6    3    4 ar
   7    3   39 1
   8    4    5 ar
   9    4    7 ar
  10    5    6 ar
  11    5   10 ar
  12    7    8 ar
  13    7   11 1
  14    8    9 ar
  15    8   40 1
  16    9   10 ar
  17    9   12 1
  18   10   14 1
  19   11   22 1
  20   11   41 1
  21   11   42 1
  22   12   13 am
  23   12   15 2
  24   13   14 1
  25   13   16 1
  26   14   43 1
  27   14   44 1
  28   16   17 ar
  29   16   21 ar
  30   17   18 ar
  31   17   45 1
  32   18   19 ar
  33   18   30 1
  34   19   20 ar
  35   19   46 1
  36   20   21 ar
  37   20   47 1
  38   21   48 1
  39   22   23 1
  40   22   27 1
  41   23   24 1
  42   23   49 1
  43   23   50 1
  44   24   25 1
  45   24   51 1
  46   24   52 1
  47   25   26 1
  48   25   28 1
  49   25   29 1
  50   26   27 1
  51   26   53 1
  52   26   54 1
  53   27   55 1
  54   27   56 1
  55   28   36 3
  56   30   31 1
  57   31   32 am
  58   31   33 2
  59   32   34 1
  60   32   35 1
  61   34   57 1
  62   34   58 1
  63   34   59 1
  64   35   60 1
  65   35   61 1
  66   35   62 1
  67   36   63 1

#	End of record

