#	Name: ASD01190100
#	Creating user name:	WinNT
#	Creation time:	15. 06. 2019 19:07

#	Modifying user name:	WinNT
#	Modification time:	15. 06. 2019 19:07

#	Program:	/corina/corina34_cracker 3.40 0067  02.08.2006

@<TRIPOS>MOLECULE
ASD01190100
  43   46    0    0    0
SMALL
NO_CHARGES


@<TRIPOS>ATOM
   1 N1            -0.0178     1.4608     0.0101 N.pl3   
   2 C2             0.0021    -0.0041     0.0020 C.3     
   3 C3             0.1484    -0.5200     1.4349 C.3     
   4 N4            -4.6569    -2.1181    -2.3291 N.pl3   
   5 N5            -4.0782    -3.1603    -3.0609 N.2     
   6 C6            -2.7877    -3.1707    -2.8813 C.2     
   7 C7            -2.4538    -2.0760    -1.9757 C.ar    
   8 C8            -1.2587    -1.5975    -1.4272 C.ar    
   9 C9            -1.2844    -0.5207    -0.5890 C.ar    
  10 C10           -2.4854     0.1036    -0.2750 C.ar    
  11 C11           -3.6651    -0.3456    -0.7977 C.ar    
  12 C12           -3.6700    -1.4417    -1.6560 C.ar    
  13 C13           -6.0231    -1.8104    -2.2937 C.ar    
  14 C14           -6.8041    -1.9818    -3.4290 C.ar    
  15 C15           -8.1508    -1.6778    -3.3920 C.ar    
  16 C16           -8.7223    -1.2023    -2.2236 C.ar    
  17 C17           -7.9452    -1.0306    -1.0903 C.ar    
  18 C18           -6.5994    -1.3389    -1.1215 C.ar    
  19 F19          -10.0398    -0.9051    -2.1896 F       
  20 F20           -0.9310    -0.0725     2.2042 F       
  21 F21            0.1674    -1.9189     1.4273 F       
  22 F22            1.3427    -0.0405     1.9836 F       
  23 C23            1.1822     2.1755     0.0025 C.ar    
  24 C24            1.1652     3.5645     0.0101 C.ar    
  25 C25            2.3535     4.2681     0.0030 C.ar    
  26 C26            3.5594     3.5915    -0.0117 C.ar    
  27 C27            3.5800     2.2088    -0.0193 C.ar    
  28 C28            2.3954     1.4990    -0.0070 C.ar    
  29 H29           -0.8643     1.9343     0.0167 H       
  30 H30            0.8431    -0.3527    -0.5974 H       
  31 H31           -2.0894    -3.8659    -3.3236 H       
  32 H32           -0.3212    -2.0777    -1.6657 H       
  33 H33           -2.4865     0.9540     0.3907 H       
  34 H34           -4.5918     0.1484    -0.5454 H       
  35 H35           -6.3587    -2.3523    -4.3405 H       
  36 H36           -8.7585    -1.8107    -4.2748 H       
  37 H37           -8.3928    -0.6593    -0.1802 H       
  38 H38           -5.9947    -1.2094    -0.2361 H       
  39 H39            0.2237     4.0936     0.0212 H       
  40 H40            2.3410     5.3481     0.0086 H       
  41 H41            4.4873     4.1442    -0.0176 H       
  42 H42            4.5235     1.6835    -0.0308 H       
  43 H43            2.4122     0.4191    -0.0084 H       
@<TRIPOS>BOND
   1    1    2 1
   2    1   23 1
   3    1   29 1
   4    2    3 1
   5    2    9 1
   6    2   30 1
   7    3   20 1
   8    3   21 1
   9    3   22 1
  10    4    5 1
  11    4   12 1
  12    4   13 1
  13    5    6 2
  14    6    7 1
  15    6   31 1
  16    7    8 ar
  17    7   12 ar
  18    8    9 ar
  19    8   32 1
  20    9   10 ar
  21   10   11 ar
  22   10   33 1
  23   11   12 ar
  24   11   34 1
  25   13   14 ar
  26   13   18 ar
  27   14   15 ar
  28   14   35 1
  29   15   16 ar
  30   15   36 1
  31   16   17 ar
  32   16   19 1
  33   17   18 ar
  34   17   37 1
  35   18   38 1
  36   23   24 ar
  37   23   28 ar
  38   24   25 ar
  39   24   39 1
  40   25   26 ar
  41   25   40 1
  42   26   27 ar
  43   26   41 1
  44   27   28 ar
  45   27   42 1
  46   28   43 1

#	End of record

