#	Name: ASD01122013
#	Creating user name:	WinNT
#	Creation time:	15. 06. 2019 18:59

#	Modifying user name:	WinNT
#	Modification time:	15. 06. 2019 18:59

#	Program:	/corina/corina34_cracker 3.40 0067  02.08.2006

@<TRIPOS>MOLECULE
ASD01122013
  37   38    0    0    0
SMALL
NO_CHARGES


@<TRIPOS>ATOM
   1 C1            -0.0218     1.7565     0.0117 C.2     
   2 S2             0.0021    -0.0041     0.0020 S.3     
   3 C3            -1.7595    -0.0320     0.0194 C.2     
   4 C4            -2.2023     1.2393     0.0306 C.2     
   5 N5            -1.2498     2.1727     0.0313 N.2     
   6 C6            -3.6411     1.5764     0.0467 C.2     
   7 C7            -4.2059     2.6330     0.6895 C.2     
   8 C8            -5.5917     2.5688     0.4366 C.2     
   9 C9            -5.8015     1.4883    -0.3392 C.2     
  10 O10           -4.6198     0.8936    -0.5775 O.3     
  11 C11           -2.6226    -1.2674     0.0209 C.3     
  12 N12            1.0985     2.5713     0.0054 N.pl3   
  13 C13           -2.9285    -1.6775    -1.4210 C.3     
  14 C14           -1.6317    -2.0907    -2.1198 C.3     
  15 C15           -3.9050    -2.8555    -1.4200 C.3     
  16 O16           -8.4271     0.7354     0.2682 O.3     
  17 P17           -7.4107     0.9319    -0.9648 P.3     
  18 O18           -7.9550     1.9450    -1.8963 O.2     
  19 O19           -7.2304    -0.4678    -1.7399 O.3     
  20 C20           -8.2970    -1.1143    -2.4373 C.3     
  21 H21           -3.6924     3.3776     1.2797 H       
  22 H22           -6.3428     3.2559     0.7974 H       
  23 H23           -2.0963    -2.0777     0.5252 H       
  24 H24           -3.5553    -1.0583     0.5448 H       
  25 H25            1.9848     2.1772    -0.0052 H       
  26 H26            0.9967     3.5359     0.0115 H       
  27 H27           -3.3748    -0.8362    -1.9512 H       
  28 H28           -0.9361    -1.2515    -2.1206 H       
  29 H29           -1.1854    -2.9321    -1.5896 H       
  30 H30           -1.8496    -2.3829    -3.1471 H       
  31 H31           -4.8289    -2.5611    -0.9221 H       
  32 H32           -4.1229    -3.1477    -2.4472 H       
  33 H33           -3.4587    -3.6968    -0.8898 H       
  34 H34           -8.1336     0.0841     0.9199 H       
  35 H35           -9.1050    -1.3363    -1.7402 H       
  36 H36           -8.6667    -0.4577    -3.2249 H       
  37 H37           -7.9328    -2.0419    -2.8788 H       
@<TRIPOS>BOND
   1    1    2 1
   2    1   12 1
   3    1    5 2
   4    2    3 1
   5    3    4 2
   6    3   11 1
   7    4    5 1
   8    4    6 1
   9    6    7 2
  10    6   10 1
  11    7    8 1
  12    7   21 1
  13    8    9 2
  14    8   22 1
  15    9   10 1
  16    9   17 1
  17   11   13 1
  18   11   23 1
  19   11   24 1
  20   12   25 1
  21   12   26 1
  22   13   14 1
  23   13   15 1
  24   13   27 1
  25   14   28 1
  26   14   29 1
  27   14   30 1
  28   15   31 1
  29   15   32 1
  30   15   33 1
  31   16   17 1
  32   16   34 1
  33   17   18 2
  34   17   19 1
  35   19   20 1
  36   20   35 1
  37   20   36 1
  38   20   37 1

#	End of record

