#	Name: ASD01840160
#	Creating user name:	WinNT
#	Creation time:	15. 06. 2019 19:37

#	Modifying user name:	WinNT
#	Modification time:	15. 06. 2019 19:37

#	Program:	/corina/corina34_cracker 3.40 0067  02.08.2006

@<TRIPOS>MOLECULE
ASD01840160
  50   53    0    0    0
SMALL
NO_CHARGES


@<TRIPOS>ATOM
   1 C1            -1.5160     1.7373    -0.4002 C.3     
   2 C2            -1.2521     0.2307    -0.2258 C.3     
   3 N3            -0.9072    -0.4560    -1.4732 N.am    
   4 C4            -1.1376    -1.7777    -1.6007 C.2     
   5 C5            -0.7934    -2.4631    -2.8457 C.2     
   6 O6            -1.6324    -2.4011    -0.6794 O.2     
   7 C7            -0.9855    -3.7864    -3.0714 C.2     
   8 C8            -0.5620    -4.2291    -4.3869 C.ar    
   9 C9            -0.0368    -3.1828    -5.1572 C.ar    
  10 S10           -0.0850    -1.6807    -4.2451 S.3     
  11 C11           -0.6040    -5.5139    -4.9747 C.ar    
  12 C12           -0.1285    -5.6540    -6.2600 C.ar    
  13 N13            0.3496    -4.6070    -6.9104 N.ar    
  14 N14            0.3948    -3.4355    -6.3951 N.ar    
  15 C15           -0.1531    -7.0052    -6.9268 C.3     
  16 C16           -1.1523    -6.6958    -4.2174 C.3     
  17 N17           -1.5383    -4.6416    -2.1278 N.pl3   
  18 C18           -0.0291     0.6437     0.6129 C.3     
  19 N19           -0.0767     1.9186    -0.1289 N.am    
  20 C20            0.8300     2.8675    -0.4355 C.2     
  21 O21            1.9820     2.7487    -0.0674 O.2     
  22 O22            0.4594     3.9473    -1.1499 O.3     
  23 C23            1.3958     4.9148    -1.3367 C.ar    
  24 C24            2.4004     4.7372    -2.2771 C.ar    
  25 C25            1.3452     6.0837    -0.5917 C.ar    
  26 C26            2.2979     7.0658    -0.7837 C.ar    
  27 C27            3.3007     6.8844    -1.7179 C.ar    
  28 C28            3.3505     5.7220    -2.4654 C.ar    
  29 C29            4.4419     5.5297    -3.4866 C.3     
  30 H30           -1.8112     2.0175    -1.4114 H       
  31 H31           -2.1644     2.1613     0.3665 H       
  32 H32           -2.0232    -0.2868     0.3449 H       
  33 H33           -0.5130     0.0407    -2.2072 H       
  34 H34           -1.0973    -7.1320    -7.4563 H       
  35 H35            0.6728    -7.0762    -7.6346 H       
  36 H36           -0.0524    -7.7849    -6.1717 H       
  37 H37           -2.2370    -6.7229    -4.3220 H       
  38 H38           -0.7255    -7.6147    -4.6194 H       
  39 H39           -0.8911    -6.6047    -3.1631 H       
  40 H40           -1.5559    -4.3855    -1.1924 H       
  41 H41           -1.9069    -5.4953    -2.4039 H       
  42 H42           -0.2407     0.7466     1.6772 H       
  43 H43            0.8629     0.0508     0.4107 H       
  44 H44            2.4397     3.8296    -2.8611 H       
  45 H45            0.5616     6.2261     0.1377 H       
  46 H46            2.2589     7.9760    -0.2038 H       
  47 H47            4.0440     7.6535    -1.8671 H       
  48 H48            4.1113     5.9192    -4.4494 H       
  49 H49            5.3369     6.0634    -3.1667 H       
  50 H50            4.6670     4.4675    -3.5822 H       
@<TRIPOS>BOND
   1    1    2 1
   2    1   19 1
   3    1   30 1
   4    1   31 1
   5    2    3 1
   6    2   18 1
   7    2   32 1
   8    3    4 am
   9    3   33 1
  10    4    5 1
  11    4    6 2
  12    5    7 2
  13    5   10 1
  14    7    8 1
  15    7   17 1
  16    8    9 ar
  17    8   11 ar
  18    9   10 1
  19    9   14 ar
  20   11   12 ar
  21   11   16 1
  22   12   13 ar
  23   12   15 1
  24   13   14 ar
  25   15   34 1
  26   15   35 1
  27   15   36 1
  28   16   37 1
  29   16   38 1
  30   16   39 1
  31   17   40 1
  32   17   41 1
  33   18   19 1
  34   18   42 1
  35   18   43 1
  36   19   20 am
  37   20   21 2
  38   20   22 1
  39   22   23 1
  40   23   25 ar
  41   23   24 ar
  42   24   28 ar
  43   24   44 1
  44   25   26 ar
  45   25   45 1
  46   26   27 ar
  47   26   46 1
  48   27   28 ar
  49   27   47 1
  50   28   29 1
  51   29   48 1
  52   29   49 1
  53   29   50 1

#	End of record

