#	Name: ASD02588069
#	Creating user name:	WinNT
#	Creation time:	15. 06. 2019 20:25

#	Modifying user name:	WinNT
#	Modification time:	15. 06. 2019 20:25

#	Program:	/corina/corina34_cracker 3.40 0067  02.08.2006

@<TRIPOS>MOLECULE
ASD02588069
  41   44    0    0    0
SMALL
NO_CHARGES


@<TRIPOS>ATOM
   1 C1            -0.0848     1.3838    -0.0845 C.2     
   2 N2            -0.0516     0.0055    -0.0794 N.pl3   
   3 N3            -1.2692    -0.6881    -0.0226 N.2     
   4 C4            -2.3950    -0.0290     0.0238 C.2     
   5 N5            -2.4397     1.3012     0.0190 N.2     
   6 C6            -1.3360     2.0309    -0.0270 C.2     
   7 C7             1.2350     1.8352    -0.1452 C.2     
   8 C8             2.0502     0.6854    -0.1758 C.2     
   9 C9             1.2395    -0.3987    -0.1347 C.2     
  10 N10           -1.4101     3.4101    -0.0304 N.pl3   
  11 C11            1.7026    -1.8327    -0.1479 C.3     
  12 O12            0.6533    -2.6954    -0.6383 O.3     
  13 C13            0.9893    -4.0148    -0.1566 C.3     
  14 C14            1.4961    -3.7913     1.2854 C.3     
  15 C15            1.9762    -2.3227     1.2913 C.3     
  16 C16           -0.2501    -4.9120    -0.1525 C.3     
  17 O17           -0.6770    -5.1407    -1.4970 O.3     
  18 F18            3.3433    -2.2550     1.5806 F       
  19 C19            1.6872     3.2379    -0.1724 C.2     
  20 N20            1.2194     4.1691    -0.9568 N.2     
  21 C21            1.7468     5.3675    -0.8392 C.2     
  22 C22            2.7092     5.4934     0.0784 C.2     
  23 S23            2.9410     3.9282     0.8547 S.3     
  24 C24            1.1720    -1.4998     2.2998 C.3     
  25 O25            2.5814    -4.6740     1.5772 O.3     
  26 *26            2.1857    -5.8983     2.1541 Du      
  27 H27           -3.3217    -0.5819     0.0672 H       
  28 H28            3.1290     0.6715    -0.2239 H       
  29 H29           -2.2704     3.8494    -0.1182 H       
  30 H30           -0.6017     3.9394     0.0549 H       
  31 H31            2.5970    -1.9362    -0.7623 H       
  32 H32            1.7749    -4.4544    -0.7711 H       
  33 H33            0.6859    -3.9311     2.0010 H       
  34 H34           -0.0076    -5.8645     0.3187 H       
  35 H35           -1.0499    -4.4241     0.4046 H       
  36 H36           -1.4602    -5.7031    -1.5707 H       
  37 H37            1.4222     6.1989    -1.4473 H       
  38 H38            3.2494     6.3999     0.3084 H       
  39 H39            0.1080    -1.6032     2.0869 H       
  40 H40            1.3774    -1.8593     3.3081 H       
  41 H41            1.4577    -0.4508     2.2228 H       
@<TRIPOS>BOND
   1    1    2 1
   2    1    7 2
   3    1    6 1
   4    2    3 1
   5    2    9 1
   6    3    4 2
   7    4    5 1
   8    4   27 1
   9    5    6 2
  10    6   10 1
  11    7    8 1
  12    7   19 1
  13    8    9 2
  14    8   28 1
  15    9   11 1
  16   10   29 1
  17   10   30 1
  18   11   12 1
  19   11   15 1
  20   11   31 1
  21   12   13 1
  22   13   14 1
  23   13   16 1
  24   13   32 1
  25   14   15 1
  26   14   25 1
  27   14   33 1
  28   15   18 1
  29   15   24 1
  30   16   17 1
  31   16   34 1
  32   16   35 1
  33   17   36 1
  34   19   20 2
  35   19   23 1
  36   20   21 1
  37   21   22 2
  38   21   37 1
  39   22   23 1
  40   22   38 1
  41   24   39 1
  42   24   40 1
  43   24   41 1
  44   25   26 1

#	End of record

