#	Name: ASD03900037
#	Creating user name:	WinNT
#	Creation time:	15. 06. 2019 20:47

#	Modifying user name:	WinNT
#	Modification time:	15. 06. 2019 20:47

#	Program:	/corina/corina34_cracker 3.40 0067  02.08.2006

@<TRIPOS>MOLECULE
ASD03900037
  58   60    0    0    0
SMALL
NO_CHARGES


@<TRIPOS>ATOM
   1 C1             2.5849     1.2286     0.8295 C.ar    
   2 C2             2.2236    -0.1011     0.9281 C.ar    
   3 C3             1.6018    -0.7304    -0.1345 C.ar    
   4 C4             1.3405    -0.0311    -1.2983 C.ar    
   5 C5             1.6998     1.2988    -1.4019 C.ar    
   6 C6             2.3234     1.9326    -0.3370 C.ar    
   7 C7             1.2088    -2.1811    -0.0242 C.3     
   8 C8             2.4493    -3.0353     0.0246 C.ar    
   9 C9             0.4055    -2.3896     1.2337 C.ar    
  10 C10           -0.8479    -1.8184     1.3548 C.ar    
  11 C11            0.9206    -3.1565     2.2624 C.ar    
  12 C12            0.1860    -3.3496     3.4163 C.ar    
  13 C13           -1.0696    -2.7732     3.5424 C.ar    
  14 C14           -1.5864    -2.0085     2.5066 C.ar    
  15 C15            2.3386    -4.4103     0.1148 C.ar    
  16 C16            3.6979    -2.4443    -0.0265 C.ar    
  17 C17            4.8358    -3.2279     0.0182 C.ar    
  18 C18            4.7252    -4.6025     0.1146 C.ar    
  19 C19            3.4765    -5.1939     0.1596 C.ar    
  20 O20           -1.7943    -2.9617     4.6767 O.3     
  21 O21            2.6775     3.2411    -0.4363 O.3     
  22 C22            5.9657    -5.4568     0.1628 C.3     
  23 C23            0.3658    -2.5748    -1.2388 C.3     
  24 C24            1.6815     4.1404    -0.4817 C.2     
  25 C25            1.9917     5.5975    -0.7089 C.3     
  26 O26            0.5365     3.7813    -0.3404 O.2     
  27 C27           -1.4257    -2.2585     5.7595 C.2     
  28 C28           -2.2482    -2.3297     7.0202 C.3     
  29 O29           -0.4344    -1.5686     5.7231 O.2     
  30 C30            6.3918    -5.6432     1.5963 C.2     
  31 C31            7.6138    -6.4640     1.9184 C.3     
  32 O32            5.7539    -5.1348     2.4868 O.2     
  33 H33            3.0665     1.7209     1.6614 H       
  34 H34            2.4273    -0.6497     1.8358 H       
  35 H35            0.8553    -0.5251    -2.1272 H       
  36 H36            1.4954     1.8446    -2.3112 H       
  37 H37           -1.2497    -1.2229     0.5484 H       
  38 H38            1.8980    -3.6053     2.1636 H       
  39 H39            0.5887    -3.9490     4.2194 H       
  40 H40           -2.5635    -1.5585     2.6026 H       
  41 H41            1.3630    -4.8723     0.1506 H       
  42 H42            3.7844    -1.3704    -0.1018 H       
  43 H43            5.8113    -2.7663    -0.0224 H       
  44 H44            3.3900    -6.2678     0.2348 H       
  45 H45            5.7550    -6.4289    -0.2830 H       
  46 H46            6.7655    -4.9677    -0.3933 H       
  47 H47            0.9469    -2.4240    -2.1486 H       
  48 H48            0.0816    -3.6241    -1.1590 H       
  49 H49           -0.5314    -1.9570    -1.2741 H       
  50 H50            1.9854     5.8078    -1.7784 H       
  51 H51            1.2389     6.2107    -0.2136 H       
  52 H52            2.9751     5.8278    -0.2991 H       
  53 H53           -3.0962    -2.9964     6.8636 H       
  54 H54           -1.6323    -2.7105     7.8349 H       
  55 H55           -2.6111    -1.3337     7.2740 H       
  56 H56            8.0541    -6.8383     0.9942 H       
  57 H57            8.3409    -5.8432     2.4419 H       
  58 H58            7.3304    -7.3043     2.5522 H       
@<TRIPOS>BOND
   1    1    2 ar
   2    1    6 ar
   3    1   33 1
   4    2    3 ar
   5    2   34 1
   6    3    4 ar
   7    3    7 1
   8    4    5 ar
   9    4   35 1
  10    5    6 ar
  11    5   36 1
  12    6   21 1
  13    7    8 1
  14    7    9 1
  15    7   23 1
  16    8   15 ar
  17    8   16 ar
  18    9   10 ar
  19    9   11 ar
  20   10   14 ar
  21   10   37 1
  22   11   12 ar
  23   11   38 1
  24   12   13 ar
  25   12   39 1
  26   13   14 ar
  27   13   20 1
  28   14   40 1
  29   15   19 ar
  30   15   41 1
  31   16   17 ar
  32   16   42 1
  33   17   18 ar
  34   17   43 1
  35   18   19 ar
  36   18   22 1
  37   19   44 1
  38   20   27 1
  39   21   24 1
  40   22   30 1
  41   22   45 1
  42   22   46 1
  43   23   47 1
  44   23   48 1
  45   23   49 1
  46   24   25 1
  47   24   26 2
  48   25   50 1
  49   25   51 1
  50   25   52 1
  51   27   28 1
  52   27   29 2
  53   28   53 1
  54   28   54 1
  55   28   55 1
  56   30   31 1
  57   30   32 2
  58   31   56 1
  59   31   57 1
  60   31   58 1

#	End of record

