#	Name: ASD01180104
#	Creating user name:	WinNT
#	Creation time:	15. 06. 2019 19:06

#	Modifying user name:	WinNT
#	Modification time:	15. 06. 2019 19:06

#	Program:	/corina/corina34_cracker 3.40 0067  02.08.2006

@<TRIPOS>MOLECULE
ASD01180104
  72   76    0    0    0
SMALL
NO_CHARGES


@<TRIPOS>ATOM
   1 C1            -0.7229     2.6306    -2.4012 C.3     
   2 C2            -3.3748     1.6792    -2.1708 C.ar    
   3 C3            -4.0038     2.1047    -1.0155 C.ar    
   4 C4            -4.7791     1.2247    -0.2825 C.ar    
   5 C5            -4.9273    -0.0823    -0.7028 C.ar    
   6 C6            -4.2971    -0.5127    -1.8632 C.ar    
   7 C7            -5.6223    -2.4715    -2.1240 C.2     
   8 C8            -4.7374    -4.3363    -3.4188 C.3     
   9 C9            -3.8044    -5.0984    -2.5135 C.ar    
  10 C10           -2.7042    -4.4627    -1.9657 C.ar    
  11 C11           -1.8462    -5.1545    -1.1362 C.ar    
  12 C12           -2.0899    -6.4989    -0.8497 C.ar    
  13 C13           -1.1751    -7.2462     0.0386 C.2     
  14 C14           -0.5544    -9.2456     1.1471 C.2     
  15 N15           -4.4453    -1.8365    -2.2919 N.am    
  16 N16           -5.7944    -3.7135    -2.6182 N.am    
  17 N17           -1.4132    -8.5440     0.3131 N.am    
  18 N18            0.5538    -8.7593     1.7516 N.pl3   
  19 N19            1.0798    -9.8389     2.4826 N.2     
  20 N20            0.2971   -10.8429     2.2796 N.2     
  21 N21           -0.6680   -10.5056     1.5025 N.2     
  22 O22           -2.9275     4.0818    -2.7923 O.2     
  23 O23           -2.4274     2.2924    -4.4259 O.2     
  24 O24           -6.5287    -1.9238    -1.5266 O.2     
  25 O25           -0.2080    -6.6903     0.5215 O.2     
  26 S26           -2.3876     2.8040    -3.1008 S.o2    
  27 C27           -3.2017    -7.1342    -1.4057 C.ar    
  28 C28           -4.0549    -6.4291    -2.2292 C.ar    
  29 C29           -6.9828    -4.4082    -2.3665 C.ar    
  30 C30           -7.7716    -4.8433    -3.4233 C.ar    
  31 C31           -8.9440    -5.5286    -3.1716 C.ar    
  32 C32           -9.3328    -5.7813    -1.8688 C.ar    
  33 C33          -10.6158    -6.5239    -1.5977 C.3     
  34 C34          -11.7906    -5.7478    -2.1963 C.3     
  35 C35          -13.0932    -6.5017    -1.9210 C.3     
  36 C36          -13.0225    -7.8912    -2.5577 C.3     
  37 C37          -11.8477    -8.6673    -1.9590 C.3     
  38 C38          -10.5451    -7.9134    -2.2343 C.3     
  39 C39           -8.5496    -5.3493    -0.8143 C.ar    
  40 C40           -7.3729    -4.6689    -1.0595 C.ar    
  41 C41           -3.5149     0.3717    -2.5938 C.ar    
  42 H42           -0.3854     1.6007    -2.5176 H       
  43 H43           -0.0380     3.2986    -2.9233 H       
  44 H44           -0.7452     2.8881    -1.3423 H       
  45 H45           -3.8891     3.1263    -0.6844 H       
  46 H46           -5.2689     1.5600     0.6198 H       
  47 H47           -5.5323    -0.7691    -0.1296 H       
  48 H48           -4.1796    -3.5637    -3.9481 H       
  49 H49           -5.1836    -5.0209    -4.1401 H       
  50 H50           -2.5167    -3.4227    -2.1885 H       
  51 H51           -0.9876    -4.6573    -0.7096 H       
  52 H52           -3.7010    -2.2972    -2.7098 H       
  53 H53           -2.1849    -8.9876    -0.0723 H       
  54 H54            0.9093    -7.8587     1.6932 H       
  55 H55           -3.3957    -8.1741    -1.1883 H       
  56 H56           -4.9178    -6.9182    -2.6564 H       
  57 H57           -7.4688    -4.6457    -4.4410 H       
  58 H58           -9.5579    -5.8673    -3.9931 H       
  59 H59          -10.7571    -6.6241    -0.5216 H       
  60 H60          -11.8409    -4.7579    -1.7428 H       
  61 H61          -11.6492    -5.6476    -3.2725 H       
  62 H62          -13.2345    -6.6019    -0.8449 H       
  63 H63          -13.9301    -5.9488    -2.3475 H       
  64 H64          -13.9504    -8.4283    -2.3616 H       
  65 H65          -12.8811    -7.7910    -3.6338 H       
  66 H66          -11.9890    -8.7675    -0.8829 H       
  67 H67          -11.7973    -9.6572    -2.4126 H       
  68 H68          -10.4038    -7.8132    -3.3105 H       
  69 H69           -9.7081    -8.4663    -1.8079 H       
  70 H70           -8.8560    -5.5481     0.2021 H       
  71 H71           -6.7616    -4.3318    -0.2354 H       
  72 H72           -3.0235     0.0400    -3.4966 H       
@<TRIPOS>BOND
   1    1   42 1
   2    1   43 1
   3    1   44 1
   4    1   26 1
   5    2   26 1
   6    2    3 ar
   7    2   41 ar
   8    3   45 1
   9    3    4 ar
  10    4   46 1
  11    4    5 ar
  12    5    6 ar
  13    5   47 1
  14    6   41 ar
  15    6   15 1
  16    7   24 2
  17    7   15 am
  18    7   16 am
  19    8    9 1
  20    8   48 1
  21    8   49 1
  22    8   16 1
  23    9   28 ar
  24    9   10 ar
  25   10   11 ar
  26   10   50 1
  27   11   12 ar
  28   11   51 1
  29   12   27 ar
  30   12   13 1
  31   13   25 2
  32   13   17 am
  33   14   18 1
  34   14   17 1
  35   14   21 2
  36   15   52 1
  37   16   29 1
  38   17   53 1
  39   18   19 1
  40   18   54 1
  41   19   20 2
  42   20   21 1
  43   22   26 2
  44   23   26 2
  45   27   55 1
  46   27   28 ar
  47   28   56 1
  48   29   30 ar
  49   29   40 ar
  50   30   57 1
  51   30   31 ar
  52   31   58 1
  53   31   32 ar
  54   32   39 ar
  55   32   33 1
  56   33   59 1
  57   33   34 1
  58   33   38 1
  59   34   60 1
  60   34   61 1
  61   34   35 1
  62   35   62 1
  63   35   63 1
  64   35   36 1
  65   36   37 1
  66   36   64 1
  67   36   65 1
  68   37   38 1
  69   37   66 1
  70   37   67 1
  71   38   68 1
  72   38   69 1
  73   39   40 ar
  74   39   70 1
  75   40   71 1
  76   41   72 1

#	End of record

