#	Name: ASD03090857
#	Creating user name:	WinNT
#	Creation time:	15. 06. 2019 20:29

#	Modifying user name:	WinNT
#	Modification time:	15. 06. 2019 20:29

#	Program:	/corina/corina34_cracker 3.40 0067  02.08.2006

@<TRIPOS>MOLECULE
ASD03090857
  42   44    0    0    0
SMALL
NO_CHARGES


@<TRIPOS>ATOM
   1 N1            -0.0149     1.3421     0.1053 N.am    
   2 C2             0.0030    -0.0051     0.0723 C.2     
   3 O3            -1.0442    -0.6288     0.0752 O.2     
   4 N4             1.1687    -0.6570     0.0363 N.2     
   5 C5             1.2438     2.0918     0.1019 C.3     
   6 C6            -1.2932     2.0571     0.1387 C.3     
   7 C7            -1.3704     2.9048     1.4100 C.3     
   8 C8            -1.4015     2.9657    -1.0875 C.3     
   9 S9            -0.1729    -3.0447     0.0008 S.3     
  10 C10            1.1864    -1.9875     0.0037 C.2     
  11 N11            2.2793    -2.7909    -0.0347 N.pl3   
  12 C12            2.0560    -4.1338    -0.0639 C.2     
  13 C13            0.7906    -4.5309    -0.0521 C.2     
  14 C14            0.2795    -5.9484    -0.0787 C.3     
  15 O15            7.4851    -0.9543    -0.0528 O.3     
  16 C16            8.1209    -2.2099    -0.3569 C.3     
  17 O17            7.1778    -3.1928     0.1096 O.3     
  18 C18            5.9555    -2.5894     0.0355 C.ar    
  19 C19            6.1440    -1.2125    -0.0645 C.ar    
  20 C20            4.6733    -3.1114     0.0455 C.ar    
  21 C21            3.5781    -2.2627    -0.0443 C.ar    
  22 C22            3.7690    -0.8915    -0.1440 C.ar    
  23 C23            5.0485    -0.3694    -0.1545 C.ar    
  24 F24            8.3226    -2.3376    -1.7353 F       
  25 F25            9.3332    -2.3264     0.3315 F       
  26 H26            1.5382     2.3026    -0.9262 H       
  27 H27            1.1096     3.0295     0.6410 H       
  28 H28            2.0199     1.5008     0.5882 H       
  29 H29           -2.1121     1.3378     0.1313 H       
  30 H30           -1.2932     2.2575     2.2836 H       
  31 H31           -0.5515     3.6241     1.4173 H       
  32 H32           -2.3215     3.4368     1.4348 H       
  33 H33           -1.3465     2.3617    -1.9933 H       
  34 H34           -2.3525     3.4976    -1.0627 H       
  35 H35           -0.5825     3.6850    -1.0802 H       
  36 H36            2.8708    -4.8420    -0.0952 H       
  37 H37           -0.8103    -5.9421    -0.0608 H       
  38 H38            0.6251    -6.4422    -0.9869 H       
  39 H39            0.6541    -6.4861     0.7923 H       
  40 H40            4.5250    -4.1784     0.1226 H       
  41 H41            2.9166    -0.2319    -0.2138 H       
  42 H42            5.1947     0.6979    -0.2316 H       
@<TRIPOS>BOND
   1    1    2 am
   2    1    5 1
   3    1    6 1
   4    2    3 2
   5    2    4 1
   6    4   10 2
   7    5   26 1
   8    5   27 1
   9    5   28 1
  10    6    7 1
  11    6    8 1
  12    6   29 1
  13    7   30 1
  14    7   31 1
  15    7   32 1
  16    8   33 1
  17    8   34 1
  18    8   35 1
  19    9   10 1
  20    9   13 1
  21   10   11 1
  22   11   12 1
  23   11   21 1
  24   12   13 2
  25   12   36 1
  26   13   14 1
  27   14   37 1
  28   14   38 1
  29   14   39 1
  30   15   16 1
  31   15   19 1
  32   16   17 1
  33   16   24 1
  34   16   25 1
  35   17   18 1
  36   18   19 ar
  37   18   20 ar
  38   19   23 ar
  39   20   21 ar
  40   20   40 1
  41   21   22 ar
  42   22   23 ar
  43   22   41 1
  44   23   42 1

#	End of record

