#	Name: ASD02030537
#	Creating user name:	WinNT
#	Creation time:	15. 06. 2019 20:15

#	Modifying user name:	WinNT
#	Modification time:	15. 06. 2019 20:15

#	Program:	/corina/corina34_cracker 3.40 0067  02.08.2006

@<TRIPOS>MOLECULE
ASD02030537
  63   67    0    0    0
SMALL
NO_CHARGES


@<TRIPOS>ATOM
   1 N1             0.1856     2.1903    -2.1328 N.am    
   2 C2             0.2960     0.7463    -1.8825 C.3     
   3 C3            -0.2055     0.4554    -0.4626 C.3     
   4 N4            -1.5101     1.1078    -0.2825 N.am    
   5 C5            -1.6204     2.5517    -0.5328 C.3     
   6 C6            -1.1176     2.8437    -1.9472 C.3     
   7 C7             1.2616     2.9035    -2.5202 C.2     
   8 C8             2.5942     2.2650    -2.5662 C.2     
   9 N9             3.7360     2.8738    -2.8039 N.2     
  10 N10            2.8537     0.9598    -2.3664 N.2     
  11 C11            4.1462     0.7967    -2.4908 C.2     
  12 N12            4.6848     2.0028    -2.7644 N.pl3   
  13 O13            1.1363     4.0718    -2.8318 O.2     
  14 C14           -2.5860     0.3945     0.1050 C.2     
  15 C15           -2.4719    -1.0692     0.3046 C.ar    
  16 O16           -3.6497     0.9519     0.2905 O.2     
  17 C17           -0.9679     4.3545    -2.1373 C.3     
  18 C18           -2.1116     2.2900    -2.9701 C.3     
  19 C19            6.0460     2.2642    -2.9711 C.ar    
  20 C20            6.4718     3.5564    -3.2464 C.ar    
  21 C21            7.8155     3.8110    -3.4494 C.ar    
  22 C22            8.7346     2.7790    -3.3787 C.ar    
  23 C23            8.3122     1.4911    -3.1047 C.ar    
  24 C24            6.9720     1.2320    -2.8954 C.ar    
  25 N25           -1.2902    -1.6034     0.5853 N.ar    
  26 C26           -1.1463    -2.9058     0.7711 C.ar    
  27 C27           -2.2439    -3.7647     0.6765 C.ar    
  28 C28           -3.4901    -3.2398     0.3852 C.ar    
  29 C29           -3.6070    -1.8695     0.2015 C.ar    
  30 C30            0.1940    -3.4591     1.0825 C.2     
  31 C31            1.0821    -3.0380     2.0327 C.2     
  32 O32            2.1468    -3.8441     1.9338 O.3     
  33 N33            2.0057    -4.6717     1.0646 N.2     
  34 C34            0.8571    -4.5582     0.4666 C.2     
  35 Cl35           8.3498     5.4265    -3.7937 Cl      
  36 C36            0.3359    -5.4125    -0.6602 C.3     
  37 C37            0.8994    -1.8953     2.9981 C.3     
  38 H38           -0.3132     0.2023    -2.6043 H       
  39 H39            1.3375     0.4379    -1.9729 H       
  40 H40           -0.3127    -0.6207    -0.3258 H       
  41 H41            0.5044     0.8501     0.2642 H       
  42 H42           -2.6620     2.8601    -0.4423 H       
  43 H43           -1.0112     3.0957     0.1890 H       
  44 H44            4.6844    -0.1341    -2.3896 H       
  45 H45           -0.0987     4.7062    -1.5816 H       
  46 H46           -0.8362     4.5761    -3.1964 H       
  47 H47           -1.8622     4.8574    -1.7693 H       
  48 H48           -3.0828     2.7634    -2.8261 H       
  49 H49           -1.7511     2.4993    -3.9772 H       
  50 H50           -2.2091     1.2127    -2.8356 H       
  51 H51            5.7544     4.3617    -3.3022 H       
  52 H52            9.7837     2.9797    -3.5383 H       
  53 H53            9.0318     0.6876    -3.0505 H       
  54 H54            6.6432     0.2258    -2.6810 H       
  55 H55           -2.1208    -4.8268     0.8287 H       
  56 H56           -4.3545    -3.8825     0.3062 H       
  57 H57           -4.5665    -1.4292    -0.0267 H       
  58 H58           -0.2838    -6.2117    -0.2536 H       
  59 H59           -0.2599    -4.7988    -1.3359 H       
  60 H60            1.1744    -5.8449    -1.2062 H       
  61 H61            0.5215    -2.2777     3.9463 H       
  62 H62            1.8571    -1.4010     3.1614 H       
  63 H63            0.1875    -1.1808     2.5849 H       
@<TRIPOS>BOND
   1    1    2 1
   2    1    7 am
   3    1    6 1
   4    2    3 1
   5    2   38 1
   6    2   39 1
   7    3    4 1
   8    3   40 1
   9    3   41 1
  10    4    5 1
  11    4   14 am
  12    5    6 1
  13    5   42 1
  14    5   43 1
  15    6   17 1
  16    6   18 1
  17    7    8 1
  18    7   13 2
  19    8    9 2
  20    8   10 1
  21    9   12 1
  22   10   11 2
  23   11   12 1
  24   11   44 1
  25   12   19 1
  26   14   15 1
  27   14   16 2
  28   15   25 ar
  29   15   29 ar
  30   17   45 1
  31   17   46 1
  32   17   47 1
  33   18   48 1
  34   18   49 1
  35   18   50 1
  36   19   20 ar
  37   19   24 ar
  38   20   21 ar
  39   20   51 1
  40   21   22 ar
  41   21   35 1
  42   22   23 ar
  43   22   52 1
  44   23   24 ar
  45   23   53 1
  46   24   54 1
  47   25   26 ar
  48   26   27 ar
  49   26   30 1
  50   27   28 ar
  51   27   55 1
  52   28   29 ar
  53   28   56 1
  54   29   57 1
  55   30   31 2
  56   30   34 1
  57   31   32 1
  58   31   37 1
  59   32   33 1
  60   33   34 2
  61   34   36 1
  62   36   58 1
  63   36   59 1
  64   36   60 1
  65   37   61 1
  66   37   62 1
  67   37   63 1

#	End of record

