#	Name: ASD00310380
#	Creating user name:	WinNT
#	Creation time:	15. 06. 2019 18:34

#	Modifying user name:	WinNT
#	Modification time:	15. 06. 2019 18:34

#	Program:	/corina/corina34_cracker 3.40 0067  02.08.2006

@<TRIPOS>MOLECULE
ASD00310380
  43   46    0    0    0
SMALL
NO_CHARGES


@<TRIPOS>ATOM
   1 N1            -0.0222     1.3814    -0.0155 N.pl3   
   2 C2            -0.0082     0.0274    -0.0328 C.2     
   3 C3             1.2804    -0.4210    -0.0492 C.2     
   4 C4             2.1396     0.7784    -0.0411 C.ar    
   5 C5             3.5158     0.9784    -0.0503 C.ar    
   6 C6             4.0210     2.2722    -0.0385 C.ar    
   7 C7             3.1472     3.3648    -0.0174 C.ar    
   8 C8             1.7849     3.1691    -0.0077 C.ar    
   9 C9             1.2652     1.8774    -0.0199 C.ar    
  10 C10            1.7239    -1.8194    -0.0699 C.2     
  11 O11            2.9115    -2.0805    -0.0827 O.2     
  12 O12            0.8146    -2.8151    -0.0748 O.3     
  13 C13            5.4877     2.4958    -0.0477 C.ar    
  14 C14            6.0545     3.3784    -0.9649 C.ar    
  15 C15            7.4214     3.5830    -0.9685 C.ar    
  16 C16            8.2263     2.9118    -0.0620 C.ar    
  17 C17            7.6671     2.0350     0.8492 C.ar    
  18 C18            6.3023     1.8282     0.8645 C.ar    
  19 C19            9.7162     3.1380    -0.0695 C.3     
  20 C20           10.1154     4.6172     0.0619 C.3     
  21 C21           11.2497     4.1475     0.9879 C.3     
  22 C22           10.3795     2.9188     1.3005 C.3     
  23 C23           10.4215     2.4124    -1.2171 C.3     
  24 O24           10.1106     1.0187    -1.1620 O.3     
  25 F25            7.9734     4.4379    -1.8571 F       
  26 Cl26           3.7860     4.9789    -0.0026 Cl      
  27 H27           -0.8247     1.9262    -0.0056 H       
  28 H28           -0.8853    -0.6029    -0.0333 H       
  29 H29            4.1876     0.1330    -0.0663 H       
  30 H30            1.1182     4.0186     0.0089 H       
  31 H31            1.1548    -3.7202    -0.0886 H       
  32 H32            5.4271     3.9012    -1.6717 H       
  33 H33            8.2990     1.5139     1.5531 H       
  34 H34            5.8669     1.1462     1.5799 H       
  35 H35           10.4675     5.0589    -0.8704 H       
  36 H36            9.3662     5.2287     0.5647 H       
  37 H37           12.1725     3.9062     0.4604 H       
  38 H38           11.4101     4.7990     1.8470 H       
  39 H39            9.7024     3.0659     2.1420 H       
  40 H40           10.9447     1.9892     1.3683 H       
  41 H41           10.0835     2.8227    -2.1686 H       
  42 H42           11.4991     2.5481    -1.1250 H       
  43 H43           10.5249     0.4953    -1.8617 H       
@<TRIPOS>BOND
   1    1    2 1
   2    1    9 1
   3    1   27 1
   4    2    3 2
   5    2   28 1
   6    3    4 1
   7    3   10 1
   8    4    5 ar
   9    4    9 ar
  10    5    6 ar
  11    5   29 1
  12    6    7 ar
  13    6   13 1
  14    7    8 ar
  15    7   26 1
  16    8    9 ar
  17    8   30 1
  18   10   11 2
  19   10   12 1
  20   12   31 1
  21   13   14 ar
  22   13   18 ar
  23   14   15 ar
  24   14   32 1
  25   15   16 ar
  26   15   25 1
  27   16   17 ar
  28   16   19 1
  29   17   18 ar
  30   17   33 1
  31   18   34 1
  32   19   20 1
  33   19   22 1
  34   19   23 1
  35   20   21 1
  36   20   35 1
  37   20   36 1
  38   21   22 1
  39   21   37 1
  40   21   38 1
  41   22   39 1
  42   22   40 1
  43   23   24 1
  44   23   41 1
  45   23   42 1
  46   24   43 1

#	End of record

