#	Name: ASD02508311
#	Creating user name:	WinNT
#	Creation time:	15. 06. 2019 20:24

#	Modifying user name:	WinNT
#	Modification time:	15. 06. 2019 20:24

#	Program:	/corina/corina34_cracker 3.40 0067  02.08.2006

@<TRIPOS>MOLECULE
ASD02508311
  46   49    0    0    0
SMALL
NO_CHARGES


@<TRIPOS>ATOM
   1 C1            -0.0167     1.3818     0.0096 C.ar    
   2 C2             0.0021    -0.0041     0.0020 C.ar    
   3 C3            -1.2098    -0.6984     0.0103 C.ar    
   4 C4            -2.4045    -0.0112     0.0258 C.ar    
   5 C5            -2.4121     1.3718     0.0333 C.ar    
   6 C6            -1.2168     2.0662     0.0299 C.ar    
   7 S7            -3.9416     2.2465     0.0530 S.o2    
   8 O8            -3.6748     3.5334    -0.4871 O.2     
   9 O9            -4.9156     1.3637    -0.4866 O.2     
  10 C10           -4.3778     2.4963     1.7418 C.ar    
  11 C11           -3.9540     3.6337     2.4027 C.ar    
  12 C12           -4.2953     3.8326     3.7322 C.ar    
  13 C13           -5.0673     2.8870     4.3965 C.ar    
  14 C14           -5.4886     1.7473     3.7276 C.ar    
  15 C15           -5.1480     1.5570     2.4018 C.ar    
  16 O16           -3.8641     4.9538     4.3722 O.3     
  17 C17           -4.5362     5.2994     5.5882 C.3     
  18 C18           -4.6678     4.0311     6.4422 C.3     
  19 O19           -5.4202     3.0662     5.6987 O.3     
  20 C20            1.4103     1.8820    -0.0013 C.3     
  21 C21            2.2667     0.6053    -0.0163 C.3     
  22 N22            1.3062    -0.5013    -0.0131 N.am    
  23 S23            1.7091    -2.1075    -0.0251 S.o2    
  24 O24            0.5890    -2.7453    -0.6232 O.2     
  25 O25            2.9885    -2.1433    -0.6424 O.2     
  26 C26            1.8355    -2.5556     1.7282 C.3     
  27 C27            2.2076    -4.0345     1.8511 C.3     
  28 H28           -1.2108    -1.7784     0.0041 H       
  29 H29           -3.3378    -0.5545     0.0318 H       
  30 H30           -1.2211     3.1461     0.0358 H       
  31 H31           -3.3562     4.3682     1.8834 H       
  32 H32           -6.0866     1.0098     4.2422 H       
  33 H33           -5.4771     0.6688     1.8829 H       
  34 H34           -3.9565     6.0479     6.1286 H       
  35 H35           -5.5265     5.6942     5.3614 H       
  36 H36           -3.6776     3.6333     6.6645 H       
  37 H37           -5.1873     4.2658     7.3712 H       
  38 H38            1.5981     2.4765    -0.8954 H       
  39 H39            1.6152     2.4669     0.8954 H       
  40 H40            2.8795     0.5715    -0.9172 H       
  41 H41            2.8966     0.5619     0.8722 H       
  42 H42            2.6042    -1.9467     2.2042 H       
  43 H43            0.8778    -2.3799     2.2180 H       
  44 H44            1.4389    -4.6433     1.3750 H       
  45 H45            3.1653    -4.2102     1.3612 H       
  46 H46            2.2836    -4.3037     2.9046 H       
@<TRIPOS>BOND
   1    1    2 ar
   2    1   20 1
   3    1    6 ar
   4    2    3 ar
   5    2   22 1
   6    3    4 ar
   7    3   28 1
   8    4    5 ar
   9    4   29 1
  10    5    6 ar
  11    5    7 1
  12    6   30 1
  13    7    8 2
  14    7    9 2
  15    7   10 1
  16   10   11 ar
  17   10   15 ar
  18   11   12 ar
  19   11   31 1
  20   12   13 ar
  21   12   16 1
  22   13   14 ar
  23   13   19 1
  24   14   15 ar
  25   14   32 1
  26   15   33 1
  27   16   17 1
  28   17   18 1
  29   17   34 1
  30   17   35 1
  31   18   19 1
  32   18   36 1
  33   18   37 1
  34   20   21 1
  35   20   38 1
  36   20   39 1
  37   21   22 1
  38   21   40 1
  39   21   41 1
  40   22   23 am
  41   23   24 2
  42   23   25 2
  43   23   26 1
  44   26   27 1
  45   26   42 1
  46   26   43 1
  47   27   44 1
  48   27   45 1
  49   27   46 1

#	End of record

