#	Name: ASD01882822
#	Creating user name:	WinNT
#	Creation time:	15. 06. 2019 19:45

#	Modifying user name:	WinNT
#	Modification time:	15. 06. 2019 19:45

#	Program:	/corina/corina34_cracker 3.40 0067  02.08.2006

@<TRIPOS>MOLECULE
ASD01882822
  33   35    0    0    0
SMALL
NO_CHARGES


@<TRIPOS>ATOM
   1 N1            -0.0165     1.3692     0.0096 N.pl3   
   2 O2             1.1412    -0.7243    -0.0127 O.3     
   3 C3             0.0021    -0.0041     0.0020 C.2     
   4 N4            -1.0753    -0.7270     0.0089 N.2     
   5 C5            -0.6823    -2.1496     0.0076 C.3     
   6 C6             0.8153    -2.0697     0.3922 C.3     
   7 C7             1.6390    -3.0940    -0.3909 C.3     
   8 O8             3.0178    -2.9666    -0.0377 O.3     
   9 C9             3.8919    -3.8099    -0.6486 C.ar    
  10 C10            5.2453    -3.7401    -0.3518 C.ar    
  11 C11            6.1334    -4.5964    -0.9720 C.ar    
  12 C12            5.6718    -5.5271    -1.8926 C.ar    
  13 C13            4.3175    -5.5966    -2.1893 C.ar    
  14 C14            3.4294    -4.7438    -1.5644 C.ar    
  15 C15            7.9180    -6.4437    -2.3334 C.2     
  16 N16            8.4138    -7.3808    -3.0950 N.2     
  17 C17            7.4229    -7.9594    -3.7894 C.2     
  18 C18            6.2656    -7.3611    -3.4483 C.2     
  19 N19            6.5743    -6.3974    -2.5236 N.pl3   
  20 H20            0.8168     1.8655     0.0043 H       
  21 H21           -0.8631     1.8427     0.0162 H       
  22 H22           -1.2463    -2.7101     0.7532 H       
  23 H23           -0.8071    -2.5872    -0.9829 H       
  24 H24            0.9511    -2.1991     1.4659 H       
  25 H25            1.2935    -4.0992    -0.1495 H       
  26 H26            1.5198    -2.9156    -1.4596 H       
  27 H27            5.6044    -3.0156     0.3642 H       
  28 H28            7.1870    -4.5417    -0.7412 H       
  29 H29            3.9580    -6.3207    -2.9055 H       
  30 H30            2.3752    -4.8007    -1.7919 H       
  31 H31            8.4816    -5.8139    -1.6611 H       
  32 H32            7.5339    -8.7655    -4.4995 H       
  33 H33            5.2829    -7.5952    -3.8304 H       
@<TRIPOS>BOND
   1    1    3 1
   2    1   20 1
   3    1   21 1
   4    2    3 1
   5    2    6 1
   6    3    4 2
   7    4    5 1
   8    5    6 1
   9    5   22 1
  10    5   23 1
  11    6    7 1
  12    6   24 1
  13    7    8 1
  14    7   25 1
  15    7   26 1
  16    8    9 1
  17    9   10 ar
  18    9   14 ar
  19   10   11 ar
  20   10   27 1
  21   11   12 ar
  22   11   28 1
  23   12   13 ar
  24   12   19 1
  25   13   14 ar
  26   13   29 1
  27   14   30 1
  28   15   16 2
  29   15   19 1
  30   15   31 1
  31   16   17 1
  32   17   18 2
  33   17   32 1
  34   18   19 1
  35   18   33 1

#	End of record

