#	Name: ASD00069160
#	Creating user name:	WinNT
#	Creation time:	15. 06. 2019 18:29

#	Modifying user name:	WinNT
#	Modification time:	15. 06. 2019 18:29

#	Program:	/corina/corina34_cracker 3.40 0067  02.08.2006

@<TRIPOS>MOLECULE
ASD00069160
  59   62    0    0    0
SMALL
NO_CHARGES


@<TRIPOS>ATOM
   1 C1             0.0867     0.9365     2.0571 C.2     
   2 C2             0.0705    -0.3547     1.3394 C.ar    
   3 C3             1.2652    -0.9291     0.9063 C.ar    
   4 C4             1.2411    -2.1448     0.2319 C.ar    
   5 C5             0.0245    -2.7830    -0.0077 C.ar    
   6 C6            -1.1566    -2.2106     0.4230 C.ar    
   7 C7            -1.1410    -1.0065     1.0978 C.ar    
   8 O8             1.1417     1.4995     2.2707 O.2     
   9 O9            -1.0689     1.4924     2.4697 O.3     
  10 C10            4.6133    -3.0746    -0.6069 C.2     
  11 N11            3.7364    -2.2563    -0.0676 N.2     
  12 C12            2.5084    -2.7623    -0.2326 C.2     
  13 C13            2.6255    -3.9472    -0.9038 C.2     
  14 N14            3.9433    -4.1417    -1.1376 N.pl3   
  15 C15            6.0729    -2.8723    -0.6394 C.2     
  16 O16            6.7900    -3.7000    -1.1686 O.2     
  17 N17            6.6130    -1.7700    -0.0828 N.am    
  18 C18            8.0047    -1.6335    -0.0080 C.ar    
  19 C19            8.5906    -0.3735    -0.1218 C.ar    
  20 C20            9.9711    -0.2452    -0.0463 C.ar    
  21 C21           10.7604    -1.3668     0.1414 C.ar    
  22 C22           10.1778    -2.6157     0.2537 C.ar    
  23 C23            8.8037    -2.7510     0.1853 C.ar    
  24 F24           10.5437     0.9735    -0.1564 F       
  25 N25            7.7891     0.7594    -0.3122 N.3     
  26 C26            7.9703     1.7222     0.7818 C.3     
  27 C27            6.9773     2.8751     0.6182 C.3     
  28 C28            7.2132     3.5578    -0.7319 C.3     
  29 C29            7.0661     2.5230    -1.8509 C.3     
  30 C30            8.0566     1.3803    -1.6157 C.3     
  31 C31            6.1838     4.6726    -0.9279 C.3     
  32 N32            6.4840     5.4042    -2.1659 N.3     
  33 C33           -0.9772     2.7618     3.1686 C.3     
  34 H34            2.2053    -0.4314     1.0936 H       
  35 H35            0.0056    -3.7271    -0.5318 H       
  36 H36           -2.0958    -2.7094     0.2346 H       
  37 H37           -2.0672    -0.5657     1.4359 H       
  38 H38            1.8183    -4.6037    -1.1931 H       
  39 H39            4.3398    -4.8984    -1.5971 H       
  40 H40            6.0377    -1.0713     0.2661 H       
  41 H41           11.8341    -1.2661     0.2001 H       
  42 H42           10.7979    -3.4878     0.3997 H       
  43 H43            8.3523    -3.7278     0.2778 H       
  44 H44            7.7956     1.2249     1.7359 H       
  45 H45            8.9876     2.1128     0.7569 H       
  46 H46            5.9595     2.4869     0.6568 H       
  47 H47            7.1226     3.5973     1.4216 H       
  48 H48            8.2178     3.9800    -0.7559 H       
  49 H49            6.0497     2.1293    -1.8511 H       
  50 H50            7.2749     2.9937    -2.8116 H       
  51 H51            9.0735     1.7726    -1.6293 H       
  52 H52            7.9445     0.6348    -2.4030 H       
  53 H53            5.1863     4.2384    -0.9952 H       
  54 H54            6.2252     5.3583    -0.0815 H       
  55 H55            6.5153     4.7787    -2.9570 H       
  56 H56            5.8176     6.1464    -2.3179 H       
  57 H57           -0.3739     2.6387     4.0680 H       
  58 H58           -0.5122     3.5022     2.5176 H       
  59 H59           -1.9768     3.0976     3.4447 H       
@<TRIPOS>BOND
   1    1    2 1
   2    1    8 2
   3    1    9 1
   4    2    3 ar
   5    2    7 ar
   6    3    4 ar
   7    3   34 1
   8    4    5 ar
   9    4   12 1
  10    5    6 ar
  11    5   35 1
  12    6    7 ar
  13    6   36 1
  14    7   37 1
  15    9   33 1
  16   10   11 2
  17   10   14 1
  18   10   15 1
  19   11   12 1
  20   12   13 2
  21   13   14 1
  22   13   38 1
  23   14   39 1
  24   15   16 2
  25   15   17 am
  26   17   18 1
  27   17   40 1
  28   18   19 ar
  29   18   23 ar
  30   19   20 ar
  31   19   25 1
  32   20   21 ar
  33   20   24 1
  34   21   22 ar
  35   21   41 1
  36   22   23 ar
  37   22   42 1
  38   23   43 1
  39   25   26 1
  40   25   30 1
  41   26   27 1
  42   26   44 1
  43   26   45 1
  44   27   28 1
  45   27   46 1
  46   27   47 1
  47   28   29 1
  48   28   31 1
  49   28   48 1
  50   29   30 1
  51   29   49 1
  52   29   50 1
  53   30   51 1
  54   30   52 1
  55   31   32 1
  56   31   53 1
  57   31   54 1
  58   32   55 1
  59   32   56 1
  60   33   57 1
  61   33   58 1
  62   33   59 1

#	End of record

