#	Name: ASD07301362
#	Creating user name:	WinNT
#	Creation time:	15. 06. 2019 21:11

#	Modifying user name:	WinNT
#	Modification time:	15. 06. 2019 21:11

#	Program:	/corina/corina34_cracker 3.40 0067  02.08.2006

@<TRIPOS>MOLECULE
ASD07301362
  28   28    0    0    0
SMALL
NO_CHARGES


@<TRIPOS>ATOM
   1 C1             0.0924     0.0810     1.0226 C.1     
   2 C2             0.0499     1.4975     0.8164 C.ar    
   3 C3             1.2381     2.2232     0.6938 C.ar    
   4 C4             1.1940     3.5851     0.4957 C.ar    
   5 C5            -0.0324     4.2391     0.4175 C.ar    
   6 C6            -1.2174     3.5191     0.5397 C.ar    
   7 C7            -1.1799     2.1562     0.7316 C.ar    
   8 N8             0.1261    -1.0426     1.1862 N.1     
   9 N9            -1.2094     6.2234     0.1444 N.2     
  10 N10           -0.0737     5.6160     0.2171 N.pl3   
  11 C11           -1.2494     7.5430     0.0572 C.2     
  12 C12           -0.0137     8.3213     0.1609 C.2     
  13 C13            0.5217     8.7082     1.5154 C.3     
  14 O14            0.5794     8.6550    -0.8439 O.2     
  15 C15           -2.5294     8.2249    -0.1430 C.2     
  16 O16           -2.5662     9.4352    -0.2230 O.2     
  17 C17           -3.8014     7.4237    -0.2497 C.3     
  18 H18            2.1898     1.7164     0.7548 H       
  19 H19            2.1117     4.1465     0.4012 H       
  20 H20           -2.1673     4.0294     0.4792 H       
  21 H21           -2.0998     1.5974     0.8212 H       
  22 H22            0.7515     6.1187     0.1321 H       
  23 H23            0.8109     7.8104     2.0618 H       
  24 H24            1.3910     9.3540     1.3916 H       
  25 H25           -0.2496     9.2399     2.0727 H       
  26 H26           -3.5713     6.3625    -0.1553 H       
  27 H27           -4.4850     7.7196     0.5460 H       
  28 H28           -4.2678     7.6097    -1.2172 H       
@<TRIPOS>BOND
   1    1    2 1
   2    1    8 3
   3    2    3 ar
   4    2    7 ar
   5    3    4 ar
   6    3   18 1
   7    4    5 ar
   8    4   19 1
   9    5    6 ar
  10    5   10 1
  11    6    7 ar
  12    6   20 1
  13    7   21 1
  14    9   10 1
  15    9   11 2
  16   10   22 1
  17   11   12 1
  18   11   15 1
  19   12   13 1
  20   12   14 2
  21   13   23 1
  22   13   24 1
  23   13   25 1
  24   15   16 2
  25   15   17 1
  26   17   26 1
  27   17   27 1
  28   17   28 1

#	End of record

