#	Name: ASD01180371
#	Creating user name:	WinNT
#	Creation time:	15. 06. 2019 19:07

#	Modifying user name:	WinNT
#	Modification time:	15. 06. 2019 19:07

#	Program:	/corina/corina34_cracker 3.40 0067  02.08.2006

@<TRIPOS>MOLECULE
ASD01180371
  30   31    0    0    0
SMALL
NO_CHARGES


@<TRIPOS>ATOM
   1 C1            -0.0168     1.3888     0.0097 C.ar    
   2 C2             0.0021    -0.0041     0.0020 C.ar    
   3 C3             1.2095    -0.6787    -0.0132 C.ar    
   4 C4             2.4124     0.0436    -0.0208 C.ar    
   5 C5             2.3850     1.4413    -0.0131 C.ar    
   6 C6             1.1807     2.1062     0.0021 C.ar    
   7 C7            -1.3119     2.1111     0.0197 C.ar    
   8 C8            -1.3356     3.5049     0.0274 C.ar    
   9 C9            -2.5438     4.1717     0.0368 C.ar    
  10 C10           -3.7298     3.4597     0.0386 C.ar    
  11 C11           -3.7124     2.0765     0.0315 C.ar    
  12 C12           -2.5102     1.3990     0.0158 C.ar    
  13 C13            3.6655    -0.6494    -0.0361 C.1     
  14 N14            4.6595    -1.1992    -0.0482 N.1     
  15 C15           -5.0459     4.1937     0.0489 C.3     
  16 F16           -5.4595     4.4280    -1.2669 F       
  17 F17           -6.0064     3.4197     0.7088 F       
  18 F18           -4.8936     5.4149     0.7143 F       
  19 O19            1.2307    -2.0357    -0.0202 O.3     
  20 C20           -0.0322    -2.7043    -0.0112 C.3     
  21 H21           -0.9256    -0.5570     0.0083 H       
  22 H22            3.3097     1.9993    -0.0186 H       
  23 H23            1.1617     3.1860     0.0078 H       
  24 H24           -0.4102     4.0617     0.0264 H       
  25 H25           -2.5634     5.2515     0.0431 H       
  26 H26           -4.6414     1.5258     0.0333 H       
  27 H27           -2.4978     0.3191     0.0050 H       
  28 H28           -0.5850    -2.4246     0.8856 H       
  29 H29           -0.6024    -2.4157    -0.8943 H       
  30 H30            0.1274    -3.7825    -0.0182 H       
@<TRIPOS>BOND
   1    1    2 ar
   2    1    6 ar
   3    1    7 1
   4    2    3 ar
   5    2   21 1
   6    3    4 ar
   7    3   19 1
   8    4    5 ar
   9    4   13 1
  10    5    6 ar
  11    5   22 1
  12    6   23 1
  13    7    8 ar
  14    7   12 ar
  15    8    9 ar
  16    8   24 1
  17    9   10 ar
  18    9   25 1
  19   10   11 ar
  20   10   15 1
  21   11   12 ar
  22   11   26 1
  23   12   27 1
  24   13   14 3
  25   15   16 1
  26   15   17 1
  27   15   18 1
  28   19   20 1
  29   20   28 1
  30   20   29 1
  31   20   30 1

#	End of record

