#	Name: ASD01815995
#	Creating user name:	WinNT
#	Creation time:	15. 06. 2019 19:34

#	Modifying user name:	WinNT
#	Modification time:	15. 06. 2019 19:34

#	Program:	/corina/corina34_cracker 3.40 0067  02.08.2006

@<TRIPOS>MOLECULE
ASD01815995
  51   54    0    0    0
SMALL
NO_CHARGES


@<TRIPOS>ATOM
   1 C1            -0.2401     1.5561    -0.8636 C.ar    
   2 C2            -0.1828     0.1840    -0.6798 C.ar    
   3 C3             1.0313    -0.4572    -0.5458 C.ar    
   4 C4             2.2136     0.2727    -0.5944 C.ar    
   5 C5             2.1521     1.6638    -0.7808 C.ar    
   6 C6             0.9218     2.2988    -0.9146 C.ar    
   7 N7             3.4350    -0.3646    -0.4601 N.pl3   
   8 C8             4.6082     0.2875    -0.4983 C.2     
   9 C9             4.6729     1.6472    -0.6759 C.2     
  10 C10            3.4186     2.4190    -0.8294 C.2     
  11 C11            5.7420     2.6370    -0.7640 C.2     
  12 N12            5.1362     3.8299    -0.9475 N.am    
  13 N13            3.7487     3.6692    -0.9824 N.2     
  14 C14            5.8036     5.0539    -1.0831 C.ar    
  15 O15            6.9419     2.4286    -0.6866 O.2     
  16 C16            3.4484    -1.8168    -0.2670 C.3     
  17 C17            6.2755     5.4553    -2.3256 C.ar    
  18 C18            6.9334     6.6628    -2.4564 C.ar    
  19 C19            7.1232     7.4727    -1.3516 C.ar    
  20 C20            6.6551     7.0777    -0.1119 C.ar    
  21 C21            5.9901     5.8728     0.0255 C.ar    
  22 F22            5.5323     5.4867     1.2365 F       
  23 C23            3.5113    -2.5118    -1.6286 C.3     
  24 N24            3.5247    -3.9679    -1.4350 N.3     
  25 C25            1.8782    -4.5920    -3.1369 C.3     
  26 C26            3.3460    -4.6705    -2.7126 C.3     
  27 C27            4.5796    -5.8205    -0.2299 C.3     
  28 C28            4.7592    -4.3986    -0.7654 C.3     
  29 H29           -1.1969     2.0453    -0.9716 H       
  30 H30           -1.0974    -0.3889    -0.6408 H       
  31 H31            1.0633    -1.5272    -0.4026 H       
  32 H32            0.8761     3.3682    -1.0583 H       
  33 H33            5.5249    -0.2723    -0.3860 H       
  34 H34            4.3202    -2.0967     0.3244 H       
  35 H35            2.5417    -2.1222     0.2553 H       
  36 H36            6.1287     4.8236    -3.1893 H       
  37 H37            7.3004     6.9748    -3.4230 H       
  38 H38            7.6386     8.4158    -1.4573 H       
  39 H39            6.8054     7.7123     0.7489 H       
  40 H40            2.6395    -2.2319    -2.2200 H       
  41 H41            4.4179    -2.2063    -2.1509 H       
  42 H42            1.7612    -5.0378    -4.1247 H       
  43 H43            1.2629    -5.1338    -2.4186 H       
  44 H44            1.5647    -3.5486    -3.1697 H       
  45 H45            3.9700    -4.2033    -3.4745 H       
  46 H46            3.6353    -5.7150    -2.5964 H       
  47 H47            3.6978    -5.8592     0.4097 H       
  48 H48            4.4533    -6.5099    -1.0647 H       
  49 H49            5.4595    -6.1055     0.3468 H       
  50 H50            5.5842    -4.3801    -1.4775 H       
  51 H51            4.9782    -3.7237     0.0620 H       
@<TRIPOS>BOND
   1    1    2 ar
   2    1    6 ar
   3    1   29 1
   4    2    3 ar
   5    2   30 1
   6    3    4 ar
   7    3   31 1
   8    4    5 ar
   9    4    7 1
  10    5    6 ar
  11    5   10 1
  12    6   32 1
  13    7    8 1
  14    7   16 1
  15    8    9 2
  16    8   33 1
  17    9   10 1
  18    9   11 1
  19   10   13 2
  20   11   12 am
  21   11   15 2
  22   12   13 1
  23   12   14 1
  24   14   17 ar
  25   14   21 ar
  26   16   23 1
  27   16   34 1
  28   16   35 1
  29   17   18 ar
  30   17   36 1
  31   18   19 ar
  32   18   37 1
  33   19   20 ar
  34   19   38 1
  35   20   21 ar
  36   20   39 1
  37   21   22 1
  38   23   24 1
  39   23   40 1
  40   23   41 1
  41   24   26 1
  42   24   28 1
  43   25   26 1
  44   25   42 1
  45   25   43 1
  46   25   44 1
  47   26   45 1
  48   26   46 1
  49   27   28 1
  50   27   47 1
  51   27   48 1
  52   27   49 1
  53   28   50 1
  54   28   51 1

#	End of record

