#	Name: ASD05420033
#	Creating user name:	WinNT
#	Creation time:	15. 06. 2019 20:59

#	Modifying user name:	WinNT
#	Modification time:	15. 06. 2019 20:59

#	Program:	/corina/corina34_cracker 3.40 0067  02.08.2006

@<TRIPOS>MOLECULE
ASD05420033
  39   40    0    0    0
SMALL
NO_CHARGES


@<TRIPOS>ATOM
   1 C1             0.6829     0.6104     0.8887 C.ar    
   2 C2             0.0588    -0.1413    -0.0924 C.ar    
   3 C3             0.7319    -0.4445    -1.2637 C.ar    
   4 C4             2.0256     0.0034    -1.4524 C.ar    
   5 C5             2.6477     0.7538    -0.4721 C.ar    
   6 C6             1.9766     1.0571     0.6979 C.ar    
   7 F7            -1.2058    -0.5789     0.0933 F       
   8 C8             4.0587     1.2411    -0.6788 C.3     
   9 N9             4.0315     2.5561    -1.3241 N.pl3   
  10 C10            5.2239     3.2118    -1.6184 C.ar    
  11 N11            5.1898     4.4008    -2.2021 N.ar    
  12 C12            6.2992     5.0611    -2.5000 C.ar    
  13 C13            7.5485     4.5195    -2.2054 C.ar    
  14 C14            7.6186     3.2716    -1.5920 C.ar    
  15 C15            6.4336     2.6142    -1.2914 C.ar    
  16 N16            6.2156     6.3079    -3.1138 N.pl3   
  17 F17            8.8126     2.7153    -1.2919 F       
  18 N18            8.7232     5.2237    -2.5239 N.am    
  19 C19            9.3000     6.0229    -1.6046 C.2     
  20 O20            8.7571     6.2068    -0.5330 O.2     
  21 O21           10.4779     6.6178    -1.8735 O.3     
  22 C22           12.3693     8.0487    -1.3210 C.3     
  23 C23           11.0404     7.4648    -0.8370 C.3     
  24 H24            0.1572     0.8513     1.8009 H       
  25 H25            0.2462    -1.0310    -2.0296 H       
  26 H26            2.5509    -0.2333    -2.3658 H       
  27 H27            2.4637     1.6435     1.4630 H       
  28 H28            4.5608     1.3199     0.2854 H       
  29 H29            4.5973     0.5365    -1.3124 H       
  30 H30            3.1828     2.9698    -1.5464 H       
  31 H31            6.4527     1.6451    -0.8152 H       
  32 H32            5.3481     6.6892    -3.3212 H       
  33 H33            7.0248     6.7953    -3.3339 H       
  34 H34            9.1184     5.1344    -3.4052 H       
  35 H35           13.0628     7.2378    -1.5436 H       
  36 H36           12.2002     8.6396    -2.2211 H       
  37 H37           12.7916     8.6846    -0.5429 H       
  38 H38           10.3469     8.2757    -0.6144 H       
  39 H39           11.2095     6.8739     0.0631 H       
@<TRIPOS>BOND
   1    1    2 ar
   2    1    6 ar
   3    1   24 1
   4    2    3 ar
   5    2    7 1
   6    3    4 ar
   7    3   25 1
   8    4    5 ar
   9    4   26 1
  10    5    6 ar
  11    5    8 1
  12    6   27 1
  13    8    9 1
  14    8   28 1
  15    8   29 1
  16    9   10 1
  17    9   30 1
  18   10   11 ar
  19   10   15 ar
  20   11   12 ar
  21   12   13 ar
  22   12   16 1
  23   13   14 ar
  24   13   18 1
  25   14   15 ar
  26   14   17 1
  27   15   31 1
  28   16   32 1
  29   16   33 1
  30   18   19 am
  31   18   34 1
  32   19   20 2
  33   19   21 1
  34   21   23 1
  35   22   23 1
  36   22   35 1
  37   22   36 1
  38   22   37 1
  39   23   38 1
  40   23   39 1

#	End of record

