#	Name: ASD01180041
#	Creating user name:	WinNT
#	Creation time:	15. 06. 2019 19:06

#	Modifying user name:	WinNT
#	Modification time:	15. 06. 2019 19:06

#	Program:	/corina/corina34_cracker 3.40 0067  02.08.2006

@<TRIPOS>MOLECULE
ASD01180041
  66   69    0    0    0
SMALL
NO_CHARGES


@<TRIPOS>ATOM
   1 C1            -0.2528     1.6323    -0.5454 C.3     
   2 O2            -0.1773     0.2081    -0.4557 O.3     
   3 C3            -1.3533    -0.4680    -0.3730 C.ar    
   4 C4            -1.3539    -1.8525    -0.2834 C.ar    
   5 C5            -2.5506    -2.5374    -0.1994 C.ar    
   6 C6            -3.7471    -1.8444    -0.2046 C.ar    
   7 C7            -3.7491    -0.4647    -0.2943 C.ar    
   8 C8            -2.5549     0.2254    -0.3723 C.ar    
   9 C9            -5.0511    -2.5942    -0.1129 C.3     
  10 C10           -5.8152    -2.1460     1.1349 C.3     
  11 C11           -7.1429    -2.8595     1.1992 C.2     
  12 C12           -7.7898    -3.2272     0.0729 C.2     
  13 C13           -7.2416    -2.9694    -1.1958 C.2     
  14 O14           -7.8553    -3.3034    -2.1899 O.2     
  15 C15           -5.9090    -2.2875    -1.3449 C.3     
  16 C16           -9.1254    -3.9239     0.1444 C.3     
  17 C17           -9.3599    -4.4986     1.5105 C.2     
  18 C18           -8.6466    -4.0860     2.5726 C.2     
  19 N19           -7.6800    -3.1303     2.4290 N.pl3   
  20 C20           -8.9149    -4.6809     3.9310 C.3     
  21 C21          -10.3506    -5.4931     1.6841 C.2     
  22 O22          -10.4682    -6.0540     2.7576 O.2     
  23 O23          -11.1655    -5.8199     0.6593 O.3     
  24 C24          -12.1432    -6.8327     0.9053 C.3     
  25 C25          -13.3727    -6.5778     0.0311 C.3     
  26 C26          -11.5532    -8.2036     0.5685 C.3     
  27 C27          -10.2174    -2.9340    -0.1701 C.ar    
  28 C28          -10.3779    -1.8107     0.6189 C.ar    
  29 C29          -11.3793    -0.8993     0.3344 C.ar    
  30 Br30         -11.5957     0.6363     1.4164 Br      
  31 C31          -12.2234    -1.1120    -0.7441 C.ar    
  32 C32          -12.0609    -2.2430    -1.5384 C.ar    
  33 C33          -11.0528    -3.1489    -1.2509 C.ar    
  34 O34          -12.8869    -2.4563    -2.5975 O.3     
  35 C35          -12.6614    -3.6382    -3.3684 C.3     
  36 O36          -13.2087    -0.2175    -1.0252 O.3     
  37 H37            0.7537     2.0464    -0.6056 H       
  38 H38           -0.8142     1.9110    -1.4372 H       
  39 H39           -0.7553     2.0259     0.3381 H       
  40 H40           -0.4197    -2.3943    -0.2796 H       
  41 H41           -2.5517    -3.6152    -0.1300 H       
  42 H42           -4.6850     0.0743    -0.2990 H       
  43 H43           -2.5570     1.3031    -0.4423 H       
  44 H44           -4.8547    -3.6649    -0.0572 H       
  45 H45           -5.2312    -2.3854     2.0236 H       
  46 H46           -5.9832    -1.0700     1.0905 H       
  47 H47           -6.0574    -1.2108    -1.4270 H       
  48 H48           -5.4081    -2.6574    -2.2395 H       
  49 H49           -9.1496    -4.7279    -0.5911 H       
  50 H50           -7.3714    -2.6391     3.2064 H       
  51 H51           -8.3640    -5.6158     4.0335 H       
  52 H52           -8.5926    -3.9827     4.7035 H       
  53 H53           -9.9822    -4.8744     4.0385 H       
  54 H54          -12.4332    -6.8102     1.9558 H       
  55 H55          -13.0826    -6.6004    -1.0193 H       
  56 H56          -14.1184    -7.3503     0.2188 H       
  57 H57          -13.7930    -5.6012     0.2711 H       
  58 H58          -10.6773    -8.3852     1.1913 H       
  59 H59          -12.2989    -8.9761     0.7561 H       
  60 H60          -11.2631    -8.2261    -0.4820 H       
  61 H61           -9.7206    -1.6442     1.4595 H       
  62 H62          -10.9247    -4.0274    -1.8659 H       
  63 H63          -13.3872    -3.6865    -4.1801 H       
  64 H64          -11.6536    -3.6147    -3.7831 H       
  65 H65          -12.7713    -4.5148    -2.7301 H       
  66 H66          -12.9388     0.4881    -1.6289 H       
@<TRIPOS>BOND
   1    1    2 1
   2    1   37 1
   3    1   38 1
   4    1   39 1
   5    2    3 1
   6    3    4 ar
   7    3    8 ar
   8    4    5 ar
   9    4   40 1
  10    5    6 ar
  11    5   41 1
  12    6    7 ar
  13    6    9 1
  14    7    8 ar
  15    7   42 1
  16    8   43 1
  17    9   10 1
  18    9   15 1
  19    9   44 1
  20   10   11 1
  21   10   45 1
  22   10   46 1
  23   11   12 2
  24   11   19 1
  25   12   13 1
  26   12   16 1
  27   13   14 2
  28   13   15 1
  29   15   47 1
  30   15   48 1
  31   16   17 1
  32   16   27 1
  33   16   49 1
  34   17   18 2
  35   17   21 1
  36   18   19 1
  37   18   20 1
  38   19   50 1
  39   20   51 1
  40   20   52 1
  41   20   53 1
  42   21   22 2
  43   21   23 1
  44   23   24 1
  45   24   25 1
  46   24   26 1
  47   24   54 1
  48   25   55 1
  49   25   56 1
  50   25   57 1
  51   26   58 1
  52   26   59 1
  53   26   60 1
  54   27   28 ar
  55   27   33 ar
  56   28   29 ar
  57   28   61 1
  58   29   30 1
  59   29   31 ar
  60   31   32 ar
  61   31   36 1
  62   32   33 ar
  63   32   34 1
  64   33   62 1
  65   34   35 1
  66   35   63 1
  67   35   64 1
  68   35   65 1
  69   36   66 1

#	End of record

