#	Name: ASD03430358
#	Creating user name:	WinNT
#	Creation time:	15. 06. 2019 20:40

#	Modifying user name:	WinNT
#	Modification time:	15. 06. 2019 20:40

#	Program:	/corina/corina34_cracker 3.40 0067  02.08.2006

@<TRIPOS>MOLECULE
ASD03430358
  64   70    0    0    0
SMALL
NO_CHARGES


@<TRIPOS>ATOM
   1 C1            -0.0167     1.3825     0.0096 C.ar    
   2 C2             0.0021    -0.0041     0.0020 C.ar    
   3 C3             1.2024    -0.6818    -0.0148 C.ar    
   4 C4             2.4086     0.0132    -0.0143 C.ar    
   5 C5             2.3860     1.4037    -0.0116 C.ar    
   6 C6             1.1812     2.0870     0.0020 C.ar    
   7 O7             3.4710    -0.8417    -0.0028 O.3     
   8 C8             1.5508    -2.1457    -0.0493 C.3     
   9 C9             3.0368    -2.1456    -0.4340 C.3     
  10 C10            0.0895    -3.9124    -0.3044 C.ar    
  11 C11            0.7179    -2.9080    -1.0368 C.ar    
  12 C12            1.3167    -2.8191     1.2723 C.2     
  13 N13            0.4601    -3.8336     1.0401 N.am    
  14 O14            1.8035    -2.5108     2.3396 O.2     
  15 C15            0.5009    -2.7880    -2.3909 C.ar    
  16 C16           -0.3474    -3.6695    -3.0378 C.ar    
  17 C17           -0.9757    -4.6710    -2.3210 C.ar    
  18 C18           -0.7616    -4.7954    -0.9636 C.ar    
  19 C19           -0.0258    -4.7472     2.0772 C.3     
  20 C20            0.9181    -5.9467     2.1831 C.3     
  21 O21            2.2006    -5.5065     2.6378 O.3     
  22 C22            0.3486    -6.9588     3.1807 C.3     
  23 N23            1.2962    -8.0720     3.3364 N.3     
  24 C24            2.6017    -7.5834     3.8036 C.3     
  25 C25            3.1485    -6.5651     2.7997 C.3     
  26 O26           -1.2112     2.0361     0.0189 O.3     
  27 C27           -1.1862     3.4156     0.4014 C.3     
  28 C28           -0.0353     4.1003    -0.3480 C.3     
  29 O29            1.1865     3.4485     0.0122 O.3     
  30 C30            0.7614    -9.0955     4.2443 C.3     
  31 C31            1.6358   -10.3216     4.1900 C.ar    
  32 C32            2.7074   -10.4452     5.0545 C.ar    
  33 C33            3.5095   -11.5699     5.0046 C.ar    
  34 C34            3.2399   -12.5712     4.0905 C.ar    
  35 C35            2.1678   -12.4480     3.2266 C.ar    
  36 C36            1.3631   -11.3253     3.2794 C.ar    
  37 H37           -0.9269    -0.5549     0.0097 H       
  38 H38            3.3147     1.9549    -0.0199 H       
  39 H39            3.1576    -2.2570    -1.5115 H       
  40 H40            3.5748    -2.9289     0.1000 H       
  41 H41            0.9928    -2.0049    -2.9488 H       
  42 H42           -0.5184    -3.5752    -4.0999 H       
  43 H43           -1.6376    -5.3591    -2.8259 H       
  44 H44           -1.2558    -5.5805    -0.4106 H       
  45 H45           -0.0596    -4.2259     3.0338 H       
  46 H46           -1.0259    -5.0937     1.8166 H       
  47 H47            1.0204    -6.4168     1.2050 H       
  48 H48            0.1960    -6.4733     4.1446 H       
  49 H49           -0.6028    -7.3398     2.8097 H       
  50 H50            2.4850    -7.1079     4.7775 H       
  51 H51            3.2948    -8.4204     3.8873 H       
  52 H52            3.3157    -7.0539     1.8399 H       
  53 H53            4.0892    -6.1578     3.1703 H       
  54 H54           -2.1315     3.8883     0.1346 H       
  55 H55           -1.0246     3.4963     1.4763 H       
  56 H56           -0.1935     4.0134    -1.4229 H       
  57 H57            0.0119     5.1524    -0.0668 H       
  58 H58            0.7452    -8.7056     5.2621 H       
  59 H59           -0.2517    -9.3579     3.9396 H       
  60 H60            2.9181    -9.6629     5.7687 H       
  61 H61            4.3471   -11.6662     5.6796 H       
  62 H62            3.8670   -13.4496     4.0511 H       
  63 H63            1.9574   -13.2301     2.5122 H       
  64 H64            0.5233   -11.2307     2.6070 H       
@<TRIPOS>BOND
   1    1    2 ar
   2    1    6 ar
   3    1   26 1
   4    2    3 ar
   5    2   37 1
   6    3    4 ar
   7    3    8 1
   8    4    5 ar
   9    4    7 1
  10    5    6 ar
  11    5   38 1
  12    6   29 1
  13    7    9 1
  14    8    9 1
  15    8   11 1
  16    8   12 1
  17    9   39 1
  18    9   40 1
  19   10   11 ar
  20   10   13 1
  21   10   18 ar
  22   11   15 ar
  23   12   13 am
  24   12   14 2
  25   13   19 1
  26   15   16 ar
  27   15   41 1
  28   16   17 ar
  29   16   42 1
  30   17   18 ar
  31   17   43 1
  32   18   44 1
  33   19   20 1
  34   19   45 1
  35   19   46 1
  36   20   21 1
  37   20   22 1
  38   20   47 1
  39   21   25 1
  40   22   23 1
  41   22   48 1
  42   22   49 1
  43   23   24 1
  44   23   30 1
  45   24   25 1
  46   24   50 1
  47   24   51 1
  48   25   52 1
  49   25   53 1
  50   26   27 1
  51   27   28 1
  52   27   54 1
  53   27   55 1
  54   28   29 1
  55   28   56 1
  56   28   57 1
  57   30   31 1
  58   30   58 1
  59   30   59 1
  60   31   32 ar
  61   31   36 ar
  62   32   33 ar
  63   32   60 1
  64   33   34 ar
  65   33   61 1
  66   34   35 ar
  67   34   62 1
  68   35   36 ar
  69   35   63 1
  70   36   64 1

#	End of record

