#	Name: ASD02508200
#	Creating user name:	WinNT
#	Creation time:	15. 06. 2019 20:23

#	Modifying user name:	WinNT
#	Modification time:	15. 06. 2019 20:23

#	Program:	/corina/corina34_cracker 3.40 0067  02.08.2006

@<TRIPOS>MOLECULE
ASD02508200
  38   39    0    0    0
SMALL
NO_CHARGES


@<TRIPOS>ATOM
   1 C1            -1.0853     1.9688     0.0704 C.ar    
   2 C2            -1.0750     0.6529    -0.3916 C.ar    
   3 C3            -2.2043    -0.1368    -0.2422 C.ar    
   4 C4            -3.3327     0.3819     0.3623 C.ar    
   5 C5            -3.3421     1.6881     0.8201 C.ar    
   6 C6            -2.2196     2.4810     0.6806 C.ar    
   7 S7            -4.7671    -0.6237     0.5512 S.o2    
   8 N8            -5.0423    -0.7849     2.1762 N.am    
   9 C9            -4.0956    -1.5306     3.0090 C.3     
  10 N10            0.1712     2.5017    -0.2162 N.am    
  11 C11            0.8915     1.5373    -0.8225 C.2     
  12 O12            0.1479     0.4250    -0.9303 O.3     
  13 O13           -5.8555     0.1283     0.0325 O.2     
  14 O14           -4.4173    -1.9155     0.0734 O.2     
  15 C15            0.6253     3.8612     0.0865 C.3     
  16 O16            2.0374     1.6563    -1.2116 O.2     
  17 C17           -4.5785     2.2451     1.4774 C.3     
  18 C18           -2.7180    -0.8693     2.9323 C.3     
  19 C19           -4.5817    -1.5295     4.4597 C.3     
  20 C20           -3.9981    -2.9719     2.5049 C.3     
  21 H21           -2.2020    -1.1564    -0.5984 H       
  22 H22           -2.2286     3.4998     1.0387 H       
  23 H23           -5.8304    -0.3855     2.5765 H       
  24 H24            1.0816     3.8800     1.0763 H       
  25 H25            1.3582     4.1736    -0.6574 H       
  26 H26           -0.2260     4.5416     0.0659 H       
  27 H27           -4.5838     1.9712     2.5324 H       
  28 H28           -4.5819     3.3310     1.3839 H       
  29 H29           -5.4641     1.8358     0.9913 H       
  30 H30           -2.8126     0.1939     3.1533 H       
  31 H31           -2.0512    -1.3334     3.6590 H       
  32 H32           -2.3089    -0.9971     1.9302 H       
  33 H33           -5.5631    -2.0007     4.5144 H       
  34 H34           -3.8773    -2.0844     5.0794 H       
  35 H35           -4.6511    -0.5028     4.8189 H       
  36 H36           -3.5024    -2.9845     1.5342 H       
  37 H37           -3.4231    -3.5669     3.2144 H       
  38 H38           -4.9996    -3.3910     2.4069 H       
@<TRIPOS>BOND
   1    1    2 ar
   2    1   10 1
   3    1    6 ar
   4    2    3 ar
   5    2   12 1
   6    3    4 ar
   7    3   21 1
   8    4    5 ar
   9    4    7 1
  10    5    6 ar
  11    5   17 1
  12    6   22 1
  13    7    8 am
  14    7   13 2
  15    7   14 2
  16    8    9 1
  17    8   23 1
  18    9   18 1
  19    9   19 1
  20    9   20 1
  21   10   11 am
  22   10   15 1
  23   11   12 1
  24   11   16 2
  25   15   24 1
  26   15   25 1
  27   15   26 1
  28   17   27 1
  29   17   28 1
  30   17   29 1
  31   18   30 1
  32   18   31 1
  33   18   32 1
  34   19   33 1
  35   19   34 1
  36   19   35 1
  37   20   36 1
  38   20   37 1
  39   20   38 1

#	End of record

