#	Name: ASD01850048
#	Creating user name:	WinNT
#	Creation time:	15. 06. 2019 19:38

#	Modifying user name:	WinNT
#	Modification time:	15. 06. 2019 19:38

#	Program:	/corina/corina34_cracker 3.40 0067  02.08.2006

@<TRIPOS>MOLECULE
ASD01850048
  56   59    0    0    0
SMALL
NO_CHARGES


@<TRIPOS>ATOM
   1 C1             0.2748     2.7068     0.4421 C.ar    
   2 C2            -0.1235     1.3833     0.4146 C.ar    
   3 C3             0.8179     0.3810     0.2734 C.ar    
   4 C4             2.1576     0.7021     0.1592 C.ar    
   5 C5             2.5558     2.0255     0.1857 C.ar    
   6 C6             1.6146     3.0278     0.3283 C.ar    
   7 C7             4.2393     3.8794    -1.9699 C.3     
   8 N8             4.3569     2.5564    -1.3516 N.am    
   9 C9             4.0164     2.3755     0.0617 C.3     
  10 C10            5.5870     4.5996    -1.8935 C.3     
  11 C11            4.7783     1.5058    -2.0831 C.2     
  12 C12            5.0051     1.6617    -3.5648 C.3     
  13 O13            4.9750     0.4349    -1.5489 O.2     
  14 C14            5.9247     0.5433    -4.0603 C.3     
  15 C15            3.6634     1.5833    -4.2969 C.3     
  16 C16            3.8939     1.7768    -5.7990 C.3     
  17 N17            4.8884     0.7960    -6.2550 N.am    
  18 C18            6.1808     0.7249    -5.5597 C.3     
  19 C19            5.0896     0.6112    -8.9936 C.ar    
  20 C20            6.3868     0.4299    -9.4505 C.ar    
  21 C21            6.8153     1.0660   -10.5948 C.ar    
  22 C22            5.9374     1.8940   -11.2921 C.ar    
  23 C23            4.6233     2.0781   -10.8299 C.ar    
  24 C24            4.2098     1.4230    -9.6772 C.ar    
  25 C25            6.0425     2.7071   -12.5097 C.2     
  26 C26            4.8459     3.2866   -12.6762 C.2     
  27 O27            4.0109     2.9175   -11.6893 O.3     
  28 S28            4.5587    -0.2104    -7.5280 S.o2    
  29 O29            5.4039    -1.3423    -7.3740 O.2     
  30 O30            3.1431    -0.3029    -7.6103 O.2     
  31 H31           -0.4611     3.4901     0.5479 H       
  32 H32           -1.1702     1.1325     0.5038 H       
  33 H33            0.5067    -0.6530     0.2526 H       
  34 H34            2.8931    -0.0811     0.0495 H       
  35 H35            1.9257     4.0618     0.3487 H       
  36 H36            3.9456     3.7678    -3.0136 H       
  37 H37            3.4854     4.4621    -1.4406 H       
  38 H38            4.2160     3.2993     0.6047 H       
  39 H39            4.6198     1.5702     0.4806 H       
  40 H40            5.8807     4.7112    -0.8498 H       
  41 H41            6.3409     4.0169    -2.4228 H       
  42 H42            5.4995     5.5839    -2.3535 H       
  43 H43            5.4699     2.6279    -3.7613 H       
  44 H44            6.8714     0.5853    -3.5218 H       
  45 H45            5.4494    -0.4222    -3.8867 H       
  46 H46            3.2095     0.6081    -4.1211 H       
  47 H47            3.0008     2.3656    -3.9268 H       
  48 H48            2.9573     1.6237    -6.3351 H       
  49 H49            4.2633     2.7852    -5.9851 H       
  50 H50            6.7366     1.6476    -5.7263 H       
  51 H51            6.7530    -0.1222    -5.9379 H       
  52 H52            7.0636    -0.2124    -8.9066 H       
  53 H53            7.8256     0.9243   -10.9492 H       
  54 H54            3.2021     1.5561    -9.3120 H       
  55 H55            6.9099     2.8164   -13.1438 H       
  56 H56            4.5894     3.9539   -13.4858 H       
@<TRIPOS>BOND
   1    1    2 ar
   2    1    6 ar
   3    1   31 1
   4    2    3 ar
   5    2   32 1
   6    3    4 ar
   7    3   33 1
   8    4    5 ar
   9    4   34 1
  10    5    6 ar
  11    5    9 1
  12    6   35 1
  13    7    8 1
  14    7   10 1
  15    7   36 1
  16    7   37 1
  17    8    9 1
  18    8   11 am
  19    9   38 1
  20    9   39 1
  21   10   40 1
  22   10   41 1
  23   10   42 1
  24   11   12 1
  25   11   13 2
  26   12   14 1
  27   12   15 1
  28   12   43 1
  29   14   18 1
  30   14   44 1
  31   14   45 1
  32   15   16 1
  33   15   46 1
  34   15   47 1
  35   16   17 1
  36   16   48 1
  37   16   49 1
  38   17   28 am
  39   17   18 1
  40   18   50 1
  41   18   51 1
  42   19   28 1
  43   19   20 ar
  44   19   24 ar
  45   20   21 ar
  46   20   52 1
  47   21   22 ar
  48   21   53 1
  49   22   23 ar
  50   22   25 1
  51   23   24 ar
  52   23   27 1
  53   24   54 1
  54   25   26 2
  55   25   55 1
  56   26   27 1
  57   26   56 1
  58   28   29 2
  59   28   30 2

#	End of record

