#	Name: ASD02448108
#	Creating user name:	WinNT
#	Creation time:	15. 06. 2019 20:21

#	Modifying user name:	WinNT
#	Modification time:	15. 06. 2019 20:21

#	Program:	/corina/corina34_cracker 3.40 0067  02.08.2006

@<TRIPOS>MOLECULE
ASD02448108
  88   93    0    0    0
SMALL
NO_CHARGES


@<TRIPOS>ATOM
   1 C1             3.4696    -6.2869    -2.5153 C.ar    
   2 C2             2.9666    -5.2327    -1.7796 C.ar    
   3 C3             2.5464    -4.0758    -2.4217 C.ar    
   4 C4             2.6312    -3.9788    -3.8040 C.ar    
   5 C5             3.1340    -5.0325    -4.5405 C.ar    
   6 C6             3.5551    -6.1901    -3.8984 C.ar    
   7 N7             4.0648    -7.2574    -4.6439 N.am    
   8 C8             4.9911    -8.3072    -4.2003 C.3     
   9 C9             5.2927    -9.2683    -5.3046 C.2     
  10 N10            4.6777    -9.0008    -6.4653 N.am    
  11 S11            3.7544    -7.6343    -6.2392 S.o2    
  12 O12            6.0360   -10.2158    -5.1618 O.2     
  13 O13            2.3923    -8.0294    -6.3269 O.2     
  14 O14            4.3330    -6.6024    -7.0264 O.2     
  15 N15            2.0351    -3.0042    -1.6732 N.pl3   
  16 C16            0.9882    -3.0558    -0.7927 C.2     
  17 C17            2.4911    -1.7245    -1.6837 C.2     
  18 N18            1.7701    -1.0132    -0.8623 N.2     
  19 C19            0.8339    -1.8008    -0.2953 C.2     
  20 C20           -0.1838    -1.3729     0.6957 C.ar    
  21 C21           -0.2301    -0.0459     1.1230 C.ar    
  22 C22           -1.1003    -2.2939     1.1986 C.ar    
  23 C23           -2.0452    -1.8911     2.1205 C.ar    
  24 C24           -2.0839    -0.5745     2.5460 C.ar    
  25 C25           -1.1796     0.3466     2.0457 C.ar    
  26 Cl26          -3.2756    -0.0748     3.7053 Cl      
  27 Cl27           0.9039     1.1097     0.4966 Cl      
  28 C28            3.6424    -1.2109    -2.5093 C.3     
  29 C29            4.8992    -1.2174    -1.6777 C.ar    
  30 C30            5.6683    -2.3645    -1.6003 C.ar    
  31 C31            5.2823    -0.0746    -0.9992 C.ar    
  32 C32            6.4324    -0.0750    -0.2361 C.ar    
  33 C33            7.2079    -1.2293    -0.1500 C.ar    
  34 C34            6.8202    -2.3760    -0.8402 C.ar    
  35 C35            8.4455    -1.2357     0.6689 C.ar    
  36 C36            8.8356    -0.0865     1.3545 C.ar    
  37 C37            9.2166    -2.3911     0.7590 C.ar    
  38 C38           10.3721    -2.3907     1.5266 C.ar    
  39 C39           10.7562    -1.2388     2.2024 C.ar    
  40 C40            9.9870    -0.0937     2.1160 C.ar    
  41 C41           12.0114    -1.2399     3.0363 C.3     
  42 C42           13.2174    -0.9425     2.1430 C.3     
  43 N43           11.1490    -3.5478     1.6205 N.3     
  44 C44           13.1021     0.4782     1.5868 C.3     
  45 C45           14.5028    -1.0662     2.9636 C.3     
  46 C46           10.3738    -4.6576     2.1910 C.3     
  47 C47           11.7082    -3.9140     0.3124 C.3     
  48 C48           10.0722    -4.3656     3.6623 C.3     
  49 C49           12.8536    -4.9095     0.5080 C.3     
  50 H50            3.8006    -7.1852    -2.0153 H       
  51 H51            2.8998    -5.3081    -0.7043 H       
  52 H52            2.3035    -3.0789    -4.3032 H       
  53 H53            3.1997    -4.9571    -5.6159 H       
  54 H54            5.9200    -7.8455    -3.8653 H       
  55 H55            4.5436    -8.8495    -3.3673 H       
  56 H56            4.7542    -9.5120    -7.2861 H       
  57 H57            0.3990    -3.9254    -0.5420 H       
  58 H58           -1.0716    -3.3215     0.8673 H       
  59 H59           -2.7561    -2.6045     2.5104 H       
  60 H60           -1.2138     1.3728     2.3809 H       
  61 H61            3.7796    -1.8521    -3.3800 H       
  62 H62            3.4290    -0.1936    -2.8373 H       
  63 H63            5.3667    -3.2528    -2.1354 H       
  64 H64            4.6807     0.8197    -1.0669 H       
  65 H65            6.7309     0.8180     0.2930 H       
  66 H66            7.4177    -3.2735    -0.7769 H       
  67 H67            8.2370     0.8101     1.2897 H       
  68 H68            8.9159    -3.2853     0.2332 H       
  69 H69           10.2896     0.7991     2.6430 H       
  70 H70           11.9347    -0.4754     3.8094 H       
  71 H71           12.1369    -2.2170     3.5027 H       
  72 H72           13.2430    -1.6546     1.3181 H       
  73 H73           13.0766     1.1903     2.4117 H       
  74 H74           13.9613     0.6901     0.9504 H       
  75 H75           12.1864     0.5664     1.0022 H       
  76 H76           14.5849    -2.0783     3.3598 H       
  77 H77           15.3620    -0.8543     2.3272 H       
  78 H78           14.4772    -0.3541     3.7884 H       
  79 H79            9.4379    -4.7665     1.6429 H       
  80 H80           10.9493    -5.5800     2.1142 H       
  81 H81           10.9308    -4.3705    -0.3002 H       
  82 H82           12.0847    -3.0202    -0.1849 H       
  83 H83           11.0057    -4.3267     4.2237 H       
  84 H84            9.5584    -3.4079     3.7448 H       
  85 H85            9.4377    -5.1543     4.0666 H       
  86 H86           13.3555    -5.0776    -0.4448 H       
  87 H87           13.5660    -4.5067     1.2279 H       
  88 H88           12.4551    -5.8533     0.8803 H       
@<TRIPOS>BOND
   1    1    2 ar
   2    1    6 ar
   3    1   50 1
   4    2    3 ar
   5    2   51 1
   6    3    4 ar
   7    3   15 1
   8    4    5 ar
   9    4   52 1
  10    5    6 ar
  11    5   53 1
  12    6    7 1
  13    7    8 1
  14    7   11 am
  15    8    9 1
  16    8   54 1
  17    8   55 1
  18    9   10 am
  19    9   12 2
  20   10   11 am
  21   10   56 1
  22   11   13 2
  23   11   14 2
  24   15   16 1
  25   15   17 1
  26   16   19 2
  27   16   57 1
  28   17   18 2
  29   17   28 1
  30   18   19 1
  31   19   20 1
  32   20   21 ar
  33   20   22 ar
  34   21   27 1
  35   21   25 ar
  36   22   23 ar
  37   22   58 1
  38   23   24 ar
  39   23   59 1
  40   24   25 ar
  41   24   26 1
  42   25   60 1
  43   28   29 1
  44   28   61 1
  45   28   62 1
  46   29   30 ar
  47   29   31 ar
  48   30   34 ar
  49   30   63 1
  50   31   32 ar
  51   31   64 1
  52   32   33 ar
  53   32   65 1
  54   33   34 ar
  55   33   35 1
  56   34   66 1
  57   35   36 ar
  58   35   37 ar
  59   36   40 ar
  60   36   67 1
  61   37   38 ar
  62   37   68 1
  63   38   39 ar
  64   38   43 1
  65   39   41 1
  66   39   40 ar
  67   40   69 1
  68   41   42 1
  69   41   70 1
  70   41   71 1
  71   42   44 1
  72   42   45 1
  73   42   72 1
  74   43   46 1
  75   43   47 1
  76   44   73 1
  77   44   74 1
  78   44   75 1
  79   45   76 1
  80   45   77 1
  81   45   78 1
  82   46   48 1
  83   46   79 1
  84   46   80 1
  85   47   49 1
  86   47   81 1
  87   47   82 1
  88   48   83 1
  89   48   84 1
  90   48   85 1
  91   49   86 1
  92   49   87 1
  93   49   88 1

#	End of record

