#	Name: ASD01916023
#	Creating user name:	WinNT
#	Creation time:	15. 06. 2019 20:06

#	Modifying user name:	WinNT
#	Modification time:	15. 06. 2019 20:06

#	Program:	/corina/corina34_cracker 3.40 0067  02.08.2006

@<TRIPOS>MOLECULE
ASD01916023
  40   42    0    0    0
SMALL
NO_CHARGES


@<TRIPOS>ATOM
   1 C1            -0.0605     1.4487    -0.6090 C.ar    
   2 C2            -0.1029     0.1320    -1.0857 C.ar    
   3 C3            -1.3145    -0.5376    -1.0594 C.ar    
   4 C4            -2.4448     0.1183    -0.5620 C.ar    
   5 C5            -3.7425    -0.5877    -0.5297 C.2     
   6 N6            -4.8119    -0.0061     0.0488 N.am    
   7 O7            -3.8456    -1.6931    -1.0250 O.2     
   8 C8             1.1684     2.1839    -0.6155 C.1     
   9 C9             2.1758     2.7866    -0.6209 C.1     
  10 C10            3.4047     3.5218    -0.6274 C.ar    
  11 C11            3.4396     4.8346    -0.1504 C.ar    
  12 C12            5.7565     3.6401    -1.1088 C.ar    
  13 C13            4.6292     5.5372    -0.1596 C.ar    
  14 N14           -2.3668     1.3686    -0.1175 N.ar    
  15 C15           -1.2391     2.0386    -0.1310 C.ar    
  16 C16            4.5761     2.9273    -1.1055 C.ar    
  17 C17            5.7845     4.9420    -0.6407 C.ar    
  18 C18           -4.6586     1.2654     0.7601 C.3     
  19 C19           -6.2370    -2.0181     0.6327 C.3     
  20 C20           -6.1274    -0.6453    -0.0338 C.3     
  21 F21            4.6661     6.8067     0.3009 F       
  22 C22           -7.3581     0.2625     0.0121 C.3     
  23 C23           -6.9498    -0.4080    -1.3020 C.3     
  24 F24           -1.4036    -1.8085    -1.5091 F       
  25 H25            0.7871    -0.3485    -1.4645 H       
  26 H26            2.5392     5.2989     0.2239 H       
  27 H27            6.6608     3.1825    -1.4820 H       
  28 H28           -1.2163     3.0530     0.2391 H       
  29 H29            4.5567     1.9113    -1.4714 H       
  30 H30            6.7122     5.4950    -0.6455 H       
  31 H31           -4.7730     2.0909     0.0576 H       
  32 H32           -5.4196     1.3412     1.5368 H       
  33 H33           -3.6692     1.3102     1.2153 H       
  34 H34           -6.0669    -1.9163     1.7045 H       
  35 H35           -7.2324    -2.4274     0.4601 H       
  36 H36           -5.4898    -2.6887     0.2084 H       
  37 H37           -8.2459    -0.1182     0.5172 H       
  38 H38           -7.1890     1.3355     0.1033 H       
  39 H39           -6.5123     0.2239    -2.0748 H       
  40 H40           -7.5692    -1.2298    -1.6613 H       
@<TRIPOS>BOND
   1    1    2 ar
   2    1    8 1
   3    1   15 ar
   4    2    3 ar
   5    2   25 1
   6    3    4 ar
   7    3   24 1
   8    4   14 ar
   9    4    5 1
  10    5    6 am
  11    5    7 2
  12    6   18 1
  13    6   20 1
  14    8    9 3
  15    9   10 1
  16   10   11 ar
  17   10   16 ar
  18   11   13 ar
  19   11   26 1
  20   12   17 ar
  21   12   16 ar
  22   12   27 1
  23   13   21 1
  24   13   17 ar
  25   14   15 ar
  26   15   28 1
  27   16   29 1
  28   17   30 1
  29   18   31 1
  30   18   32 1
  31   18   33 1
  32   19   20 1
  33   19   34 1
  34   19   35 1
  35   19   36 1
  36   20   22 1
  37   20   23 1
  38   22   23 1
  39   22   37 1
  40   22   38 1
  41   23   39 1
  42   23   40 1

#	End of record

