#	Name: ASD00600007
#	Creating user name:	WinNT
#	Creation time:	15. 06. 2019 18:36

#	Modifying user name:	WinNT
#	Modification time:	15. 06. 2019 18:36

#	Program:	/corina/corina34_cracker 3.40 0067  02.08.2006

@<TRIPOS>MOLECULE
ASD00600007
  76   79    0    0    0
SMALL
NO_CHARGES


@<TRIPOS>ATOM
   1 C1             4.6442    -0.0963    -2.8720 C.ar    
   2 C2             5.4477    -1.0177    -2.2267 C.ar    
   3 C3             5.6762    -0.9039    -0.8681 C.ar    
   4 C4             5.1015     0.1315    -0.1549 C.ar    
   5 C5             4.2988     1.0534    -0.8004 C.ar    
   6 C6             4.0692     0.9388    -2.1587 C.ar    
   7 C7             6.0741    -2.1464    -3.0042 C.3     
   8 C8             3.6720     2.1819    -0.0228 C.3     
   9 N9             3.6916     3.4061    -0.8346 N.3     
  10 C10            2.2255     1.8218     0.3222 C.3     
  11 O11            1.5100     1.5225    -0.8780 O.3     
  12 C12            0.1410     1.1715    -0.6663 C.3     
  13 C13            2.6719     4.3593    -0.3748 C.3     
  14 C14            2.6711     5.5837    -1.2931 C.3     
  15 N15            4.0054     6.1996    -1.2851 N.3     
  16 C16            5.0250     5.2464    -1.7449 C.3     
  17 C17            5.0258     4.0220    -0.8266 C.3     
  18 C18            4.0250     7.4238    -2.0969 C.3     
  19 C19            2.9494     8.3880    -1.5915 C.3     
  20 C20            2.9495     9.6486    -2.4619 C.3     
  21 N21            4.3062    10.2124    -2.4774 N.am    
  22 C22            5.4277     9.3442    -2.8611 C.3     
  23 C23            5.3998     8.0870    -1.9862 C.3     
  24 C24            4.5179    11.5016    -2.1464 C.2     
  25 C25            5.8889    12.0545    -2.1667 C.ar    
  26 O26            3.5817    12.2098    -1.8311 O.2     
  27 C27            6.7017    12.0048    -1.0286 C.ar    
  28 N28            7.9209    12.5106    -1.0913 N.ar    
  29 C29            8.3731    13.0553    -2.2039 C.ar    
  30 N30            7.6412    13.1229    -3.2987 N.ar    
  31 C31            6.4126    12.6370    -3.3264 C.ar    
  32 C32            5.5849    12.7190    -4.5831 C.3     
  33 C33            6.1946    11.3850     0.2481 C.3     
  34 C34            3.7461     7.0702    -3.5591 C.3     
  35 C35            6.0583     3.0097    -1.3266 C.3     
  36 F36            7.3242    -1.7435    -3.4859 F       
  37 F37            6.2323    -3.2570    -2.1683 F       
  38 F38            5.2473    -2.4867    -4.0802 F       
  39 H39            4.4694    -0.1826    -3.9342 H       
  40 H40            6.3033    -1.6241    -0.3638 H       
  41 H41            5.2795     0.2200     0.9066 H       
  42 H42            3.4424     1.6593    -2.6631 H       
  43 H43            4.2346     2.3464     0.8962 H       
  44 H44            2.2144     0.9517     0.9785 H       
  45 H45            1.7520     2.6638     0.8271 H       
  46 H46            0.0866     0.2878    -0.0305 H       
  47 H47           -0.3757     2.0000    -0.1819 H       
  48 H48           -0.3320     0.9590    -1.6250 H       
  49 H49            1.6914     3.8840    -0.4017 H       
  50 H50            2.8981     4.6698     0.6452 H       
  51 H51            2.4183     5.2770    -2.3080 H       
  52 H52            1.9356     6.3049    -0.9369 H       
  53 H53            4.7989     4.9359    -2.7649 H       
  54 H54            6.0056     5.7218    -1.7180 H       
  55 H55            5.2787     4.3287     0.1883 H       
  56 H56            1.9732     7.9065    -1.6487 H       
  57 H57            3.1614     8.6599    -0.5574 H       
  58 H58            2.6491     9.3914    -3.4776 H       
  59 H59            2.2550    10.3791    -2.0471 H       
  60 H60            5.3294     9.0621    -3.9094 H       
  61 H61            6.3683     9.8739    -2.7098 H       
  62 H62            5.5887     8.3617    -0.9485 H       
  63 H63            6.1676     7.3912    -2.3245 H       
  64 H64            9.3746    13.4592    -2.2188 H       
  65 H65            5.7525    11.8275    -5.1874 H       
  66 H66            4.5294    12.7859    -4.3192 H       
  67 H67            5.8739    13.6030    -5.1515 H       
  68 H68            6.4355    10.3220     0.2566 H       
  69 H69            6.6675    11.8717     1.1011 H       
  70 H70            5.1139    11.5131     0.3099 H       
  71 H71            2.7673     6.5973    -3.6383 H       
  72 H72            3.7606     7.9785    -4.1617 H       
  73 H73            4.5119     6.3831    -3.9192 H       
  74 H74            7.0476     3.4674    -1.3224 H       
  75 H75            6.0587     2.1378    -0.6725 H       
  76 H76            5.8044     2.7026    -2.3412 H       
@<TRIPOS>BOND
   1    1    2 ar
   2    1    6 ar
   3    1   39 1
   4    2    3 ar
   5    2    7 1
   6    3    4 ar
   7    3   40 1
   8    4    5 ar
   9    4   41 1
  10    5    6 ar
  11    5    8 1
  12    6   42 1
  13    7   36 1
  14    7   37 1
  15    7   38 1
  16    8    9 1
  17    8   10 1
  18    8   43 1
  19    9   13 1
  20    9   17 1
  21   10   11 1
  22   10   44 1
  23   10   45 1
  24   11   12 1
  25   12   46 1
  26   12   47 1
  27   12   48 1
  28   13   14 1
  29   13   49 1
  30   13   50 1
  31   14   15 1
  32   14   51 1
  33   14   52 1
  34   15   16 1
  35   15   18 1
  36   16   17 1
  37   16   53 1
  38   16   54 1
  39   17   35 1
  40   17   55 1
  41   18   19 1
  42   18   34 1
  43   18   23 1
  44   19   20 1
  45   19   56 1
  46   19   57 1
  47   20   21 1
  48   20   58 1
  49   20   59 1
  50   21   22 1
  51   21   24 am
  52   22   23 1
  53   22   60 1
  54   22   61 1
  55   23   62 1
  56   23   63 1
  57   24   25 1
  58   24   26 2
  59   25   27 ar
  60   25   31 ar
  61   27   28 ar
  62   27   33 1
  63   28   29 ar
  64   29   30 ar
  65   29   64 1
  66   30   31 ar
  67   31   32 1
  68   32   65 1
  69   32   66 1
  70   32   67 1
  71   33   68 1
  72   33   69 1
  73   33   70 1
  74   34   71 1
  75   34   72 1
  76   34   73 1
  77   35   74 1
  78   35   75 1
  79   35   76 1

#	End of record

