#	Name: ASD01918572
#	Creating user name:	WinNT
#	Creation time:	15. 06. 2019 20:11

#	Modifying user name:	WinNT
#	Modification time:	15. 06. 2019 20:11

#	Program:	/corina/corina34_cracker 3.40 0067  02.08.2006

@<TRIPOS>MOLECULE
ASD01918572
  43   46    0    0    0
SMALL
NO_CHARGES


@<TRIPOS>ATOM
   1 C1            -2.0859    -3.3974    -2.0234 C.3     
   2 C2            -1.9208    -2.5034    -0.8214 C.ar    
   3 C3            -2.1057    -1.1416    -0.9545 C.ar    
   4 C4            -1.9527    -0.3230     0.1565 C.ar    
   5 C5            -1.6181    -0.9067     1.3654 C.ar    
   6 C6            -1.4473    -2.2855     1.4264 C.ar    
   7 N7            -1.1103    -2.8862     2.6373 N.am    
   8 C8            -1.0539    -4.2296     2.7303 C.2     
   9 O9            -1.3867    -4.9190     1.7856 O.2     
  10 C10           -0.5886    -4.8632     3.9775 C.ar    
  11 C11           -0.2128    -4.0877     5.0610 C.ar    
  12 C12            0.2295    -4.6885     6.2481 C.ar    
  13 C13            0.3030    -6.0680     6.3709 C.ar    
  14 C14           -0.0665    -6.8954     5.3020 C.ar    
  15 C15            0.0004    -8.2987     5.4070 C.ar    
  16 C16           -0.3758    -9.0447     4.3253 C.ar    
  17 C17           -0.8094    -8.4133     3.1634 C.ar    
  18 N18           -0.8700    -7.1046     3.0705 N.ar    
  19 C19           -0.5233    -6.3208     4.0897 C.ar    
  20 C20            0.6248    -3.8369     7.3882 C.2     
  21 O21            1.3201    -4.2928     8.2750 O.2     
  22 C22            0.1751    -2.4310     7.4509 C.ar    
  23 C23           -0.9956    -2.0196     6.8017 C.ar    
  24 N24           -1.3603    -0.7523     6.8843 N.ar    
  25 C25           -0.6402     0.1183     7.5646 C.ar    
  26 N26            0.4684    -0.2257     8.1907 N.ar    
  27 C27            0.9043    -1.4728     8.1661 C.ar    
  28 N28           -1.6069    -3.0327     0.3456 N.ar    
  29 H29           -3.1238    -3.7226    -2.0944 H       
  30 H30           -1.8148    -2.8479    -2.9248 H       
  31 H31           -1.4385    -4.2682    -1.9202 H       
  32 H32           -2.3662    -0.7175    -1.9129 H       
  33 H33           -2.0914     0.7452     0.0787 H       
  34 H34           -1.4909    -0.2997     2.2496 H       
  35 H35           -0.9163    -2.3377     3.4134 H       
  36 H36           -0.2604    -3.0110     4.9911 H       
  37 H37            0.6473    -6.5071     7.2956 H       
  38 H38            0.3398    -8.7718     6.3167 H       
  39 H39           -0.3363   -10.1230     4.3721 H       
  40 H40           -1.1033    -9.0150     2.3161 H       
  41 H41           -1.5904    -2.7265     6.2424 H       
  42 H42           -0.9687     1.1461     7.6101 H       
  43 H43            1.8104    -1.7478     8.6856 H       
@<TRIPOS>BOND
   1    1    2 1
   2    1   29 1
   3    1   30 1
   4    1   31 1
   5    2   28 ar
   6    2    3 ar
   7    3    4 ar
   8    3   32 1
   9    4    5 ar
  10    4   33 1
  11    5    6 ar
  12    5   34 1
  13    6    7 1
  14    6   28 ar
  15    7    8 am
  16    7   35 1
  17    8    9 2
  18    8   10 1
  19   10   19 ar
  20   10   11 ar
  21   11   12 ar
  22   11   36 1
  23   12   13 ar
  24   12   20 1
  25   13   14 ar
  26   13   37 1
  27   14   19 ar
  28   14   15 ar
  29   15   16 ar
  30   15   38 1
  31   16   17 ar
  32   16   39 1
  33   17   18 ar
  34   17   40 1
  35   18   19 ar
  36   20   21 2
  37   20   22 1
  38   22   27 ar
  39   22   23 ar
  40   23   24 ar
  41   23   41 1
  42   24   25 ar
  43   25   26 ar
  44   25   42 1
  45   26   27 ar
  46   27   43 1

#	End of record

