#	Name: ASD01810534
#	Creating user name:	WinNT
#	Creation time:	15. 06. 2019 19:24

#	Modifying user name:	WinNT
#	Modification time:	15. 06. 2019 19:24

#	Program:	/corina/corina34_cracker 3.40 0067  02.08.2006

@<TRIPOS>MOLECULE
ASD01810534
 100  104    0    0    0
SMALL
NO_CHARGES


@<TRIPOS>ATOM
   1 S1             1.6562     1.9843    -0.6294 S.3     
   2 C2             2.3683     0.7117     0.4811 C.3     
   3 N3             1.3417    -0.3309     0.5128 N.am    
   4 C4             0.1221    -0.0137     0.0880 C.2     
   5 C5            -0.0746     1.4122    -0.3887 C.3     
   6 C6             3.6696     0.1853    -0.1100 C.3     
   7 C7             4.2469    -0.8973     0.8092 C.3     
   8 N8             4.3564    -0.3519     2.1691 N.am    
   9 C9             3.1624     0.2304     2.7969 C.3     
  10 C10            2.5920     1.3061     1.8655 C.3     
  11 C11           -0.8472     1.4436    -1.7089 C.3     
  12 C12           -1.1360     2.8952    -2.0964 C.3     
  13 O13           -0.7834    -0.8206     0.0825 O.2     
  14 C14            1.6476    -1.6797     0.9961 C.3     
  15 N15            5.4400   -11.5448    -2.7862 N.3     
  16 C16            6.0948   -12.7745    -2.3219 C.3     
  17 C17            6.6137   -13.5637    -3.5260 C.3     
  18 C18            5.4414   -13.9051    -4.4499 C.3     
  19 C19            4.7470   -12.6101    -4.8804 C.3     
  20 C20            4.2822   -11.8486    -3.6370 C.3     
  21 N21            5.9399   -14.6101    -5.6334 N.am    
  22 C22            5.5761   -15.8946    -6.0305 C.ar    
  23 C23            6.8235   -14.1245    -6.5257 C.2     
  24 N24            7.0520   -15.0431    -7.4832 N.am    
  25 C25            6.2831   -16.1700    -7.2027 C.ar    
  26 C26            6.1227   -17.3940    -7.8343 C.ar    
  27 C27            5.2645   -18.3355    -7.3011 C.ar    
  28 C28            4.5634   -18.0623    -6.1391 C.ar    
  29 C29            4.7146   -16.8452    -5.5043 C.ar    
  30 O30            7.3375   -13.0227    -6.4746 O.2     
  31 O31            5.6179     0.1177     4.0748 O.3     
  32 C32            6.9143     0.0476     4.7251 C.3     
  33 C33            7.9427     0.8204     3.8970 C.3     
  34 C34            6.8179     0.6635     6.1224 C.3     
  35 C35            7.3481    -1.4150     4.8413 C.3     
  36 C36            5.5310    -0.3855     2.8290 C.2     
  37 O37            6.5117    -0.8700     2.2997 O.2     
  38 C38            2.0519    -2.5650    -0.1844 C.3     
  39 C39            2.4986    -3.9334     0.3339 C.3     
  40 C40            2.9029    -4.8188    -0.8466 C.3     
  41 C41            3.3497    -6.1872    -0.3283 C.3     
  42 C42            3.7540    -7.0726    -1.5088 C.3     
  43 C43            4.2007    -8.4410    -0.9905 C.3     
  44 C44            4.6050    -9.3264    -2.1711 C.3     
  45 C45            5.0518   -10.6948    -1.6528 C.3     
  46 H46           -0.5784     2.0094     0.3713 H       
  47 H47            3.4756    -0.2398    -1.0948 H       
  48 H48            4.3842     1.0032    -0.2016 H       
  49 H49            3.5850    -1.7632     0.8148 H       
  50 H50            5.2341    -1.1912     0.4526 H       
  51 H51            2.4164    -0.5483     2.9561 H       
  52 H52            3.4340     0.6804     3.7519 H       
  53 H53            3.2951     2.1361     1.7953 H       
  54 H54            1.6434     1.6661     2.2639 H       
  55 H55           -0.2516     0.9707    -2.4897 H       
  56 H56           -1.7875     0.9046    -1.5925 H       
  57 H57           -0.1958     3.4342    -2.2129 H       
  58 H58           -1.6865     2.9175    -3.0370 H       
  59 H59           -1.7316     3.3681    -1.3156 H       
  60 H60            2.4681    -1.6316     1.7120 H       
  61 H61            0.7666    -2.1004     1.4809 H       
  62 H62            6.9291   -12.5174    -1.6692 H       
  63 H63            5.3771   -13.3824    -1.7711 H       
  64 H64            7.3418   -12.9615    -4.0694 H       
  65 H65            7.0859   -14.4838    -3.1819 H       
  66 H66            4.7319   -14.5397    -3.9188 H       
  67 H67            5.4458   -11.9929    -5.4451 H       
  68 H68            3.8855   -12.8490    -5.5040 H       
  69 H69            3.5730   -12.4609    -3.0801 H       
  70 H70            3.8001   -10.9190    -3.9395 H       
  71 H71            7.6484   -14.9370    -8.2408 H       
  72 H72            6.6675   -17.6103    -8.7414 H       
  73 H73            5.1395   -19.2888    -7.7930 H       
  74 H74            3.8938   -18.8035    -5.7283 H       
  75 H75            4.1660   -16.6357    -4.5979 H       
  76 H76            7.6336     1.8624     3.8142 H       
  77 H77            8.9159     0.7678     4.3852 H       
  78 H78            8.0114     0.3816     2.9016 H       
  79 H79            6.0851     0.1129     6.7124 H       
  80 H80            7.7910     0.6109     6.6106 H       
  81 H81            6.5087     1.7055     6.0396 H       
  82 H82            7.4168    -1.8538     3.8459 H       
  83 H83            8.3213    -1.4676     5.3295 H       
  84 H84            6.6154    -1.9656     5.4313 H       
  85 H85            1.2002    -2.6901    -0.8531 H       
  86 H86            2.8732    -2.0957    -0.7259 H       
  87 H87            3.3503    -3.8084     1.0026 H       
  88 H88            1.6773    -4.4027     0.8754 H       
  89 H89            2.0513    -4.9439    -1.5153 H       
  90 H90            3.7243    -4.3495    -1.3882 H       
  91 H91            4.2013    -6.0621     0.3404 H       
  92 H92            2.5283    -6.6565     0.2132 H       
  93 H93            2.9024    -7.1977    -2.1776 H       
  94 H94            4.5753    -6.6033    -2.0504 H       
  95 H95            5.0524    -8.3159    -0.3218 H       
  96 H96            3.3794    -8.9103    -0.4490 H       
  97 H97            3.7534    -9.4514    -2.8398 H       
  98 H98            5.4264    -8.8571    -2.7126 H       
  99 H99            4.2305   -11.1641    -1.1112 H       
 100 H100           5.9034   -10.5697    -0.9840 H       
@<TRIPOS>BOND
   1    1    2 1
   2    1    5 1
   3    2    3 1
   4    2    6 1
   5    2   10 1
   6    3    4 am
   7    3   14 1
   8    4    5 1
   9    4   13 2
  10    5   11 1
  11    5   46 1
  12    6    7 1
  13    6   47 1
  14    6   48 1
  15    7    8 1
  16    7   49 1
  17    7   50 1
  18    8   36 am
  19    8    9 1
  20    9   10 1
  21    9   51 1
  22    9   52 1
  23   10   53 1
  24   10   54 1
  25   11   12 1
  26   11   55 1
  27   11   56 1
  28   12   57 1
  29   12   58 1
  30   12   59 1
  31   14   38 1
  32   14   60 1
  33   14   61 1
  34   15   45 1
  35   15   16 1
  36   15   20 1
  37   16   17 1
  38   16   62 1
  39   16   63 1
  40   17   18 1
  41   17   64 1
  42   17   65 1
  43   18   19 1
  44   18   21 1
  45   18   66 1
  46   19   20 1
  47   19   67 1
  48   19   68 1
  49   20   69 1
  50   20   70 1
  51   21   22 1
  52   21   23 am
  53   22   25 ar
  54   22   29 ar
  55   23   24 am
  56   23   30 2
  57   24   25 1
  58   24   71 1
  59   25   26 ar
  60   26   27 ar
  61   26   72 1
  62   27   28 ar
  63   27   73 1
  64   28   29 ar
  65   28   74 1
  66   29   75 1
  67   31   32 1
  68   31   36 1
  69   32   33 1
  70   32   34 1
  71   32   35 1
  72   33   76 1
  73   33   77 1
  74   33   78 1
  75   34   79 1
  76   34   80 1
  77   34   81 1
  78   35   82 1
  79   35   83 1
  80   35   84 1
  81   36   37 2
  82   38   39 1
  83   38   85 1
  84   38   86 1
  85   39   40 1
  86   39   87 1
  87   39   88 1
  88   40   41 1
  89   40   89 1
  90   40   90 1
  91   41   42 1
  92   41   91 1
  93   41   92 1
  94   42   43 1
  95   42   93 1
  96   42   94 1
  97   43   44 1
  98   43   95 1
  99   43   96 1
 100   44   45 1
 101   44   97 1
 102   44   98 1
 103   45   99 1
 104   45  100 1

#	End of record

