#	Name: ASD05390014
#	Creating user name:	WinNT
#	Creation time:	15. 06. 2019 20:59

#	Modifying user name:	WinNT
#	Modification time:	15. 06. 2019 20:59

#	Program:	/corina/corina34_cracker 3.40 0067  02.08.2006

@<TRIPOS>MOLECULE
ASD05390014
  17   18    0    0    0
SMALL
NO_CHARGES


@<TRIPOS>ATOM
   1 N1            -0.0167     1.3811     0.0096 N.pl3   
   2 C2             0.0021    -0.0041     0.0020 C.ar    
   3 C3            -0.9835    -0.9788     0.0062 C.ar    
   4 C4            -0.6303    -2.3129    -0.0044 C.ar    
   5 C5             0.7052    -2.6857    -0.0191 C.ar    
   6 C6             1.6975    -1.7306    -0.0230 C.ar    
   7 C7             1.3567    -0.3762    -0.0129 C.ar    
   8 N8             2.0863     0.7704    -0.0137 N.2     
   9 C9             1.2816     1.8037    -0.0005 C.2     
  10 N10            1.6856     3.1223     0.0020 N.pl3   
  11 H11           -0.8054     1.9457     0.0166 H       
  12 H12           -2.0254    -0.6949     0.0180 H       
  13 H13           -1.3990    -3.0714    -0.0007 H       
  14 H14            0.9692    -3.7329    -0.0273 H       
  15 H15            2.7357    -2.0280    -0.0338 H       
  16 H16            1.0244     3.8320     0.0116 H       
  17 H17            2.6308     3.3400    -0.0058 H       
@<TRIPOS>BOND
   1    1    2 1
   2    1    9 1
   3    1   11 1
   4    2    3 ar
   5    2    7 ar
   6    3    4 ar
   7    3   12 1
   8    4    5 ar
   9    4   13 1
  10    5    6 ar
  11    5   14 1
  12    6    7 ar
  13    6   15 1
  14    7    8 1
  15    8    9 2
  16    9   10 1
  17   10   16 1
  18   10   17 1

#	End of record

