#	Name: ASD01884899
#	Creating user name:	WinNT
#	Creation time:	15. 06. 2019 19:49

#	Modifying user name:	WinNT
#	Modification time:	15. 06. 2019 19:49

#	Program:	/corina/corina34_cracker 3.40 0067  02.08.2006

@<TRIPOS>MOLECULE
ASD01884899
  50   55    0    0    0
SMALL
NO_CHARGES


@<TRIPOS>ATOM
   1 C1             0.5561     1.4578     0.3257 C.ar    
   2 C2             0.4198     0.1011     0.2675 C.ar    
   3 C3             1.5378    -0.7219     0.0889 C.ar    
   4 C4             2.8032    -0.1612    -0.0313 C.ar    
   5 C5             2.9463     1.2243     0.0272 C.ar    
   6 C6             1.8143     2.0412     0.2072 C.ar    
   7 C7             4.0936     2.1328    -0.0595 C.2     
   8 C8             3.6171     3.3808     0.0657 C.2     
   9 N9             2.2562     3.3476     0.2262 N.pl3   
  10 C10            1.3716    -2.1932     0.0284 C.2     
  11 C11            1.6153    -2.8752    -1.1487 C.2     
  12 C12            0.9670    -2.9148     1.1778 C.2     
  13 C13            0.8166    -4.2513     1.1208 C.2     
  14 N14            1.0501    -4.9326    -0.0391 N.pl3   
  15 C15            1.4490    -4.2703    -1.1750 C.2     
  16 C16            0.9809    -6.2487    -0.3814 C.2     
  17 N17            1.3145    -6.3460    -1.6424 N.2     
  18 N18            1.5937    -5.1850    -2.1216 N.2     
  19 C19            1.4389     4.4693     0.3855 C.ar    
  20 C20            0.5913    -7.3862     0.5271 C.3     
  21 C21           -0.6312    -8.2178     0.1336 C.3     
  22 C22            0.7731    -8.8092    -0.0046 C.3     
  23 C23            0.2956     4.6372    -0.3936 C.ar    
  24 C24           -0.4854     5.7590    -0.2051 C.ar    
  25 N25           -0.1611     6.6650     0.6977 N.ar    
  26 C26            0.9131     6.5419     1.4545 C.ar    
  27 C27            1.7428     5.4468     1.3318 C.ar    
  28 C28            1.2342     7.6085     2.4696 C.3     
  29 C29            2.0525    -2.1337    -2.3857 C.3     
  30 F30            3.4315    -1.9047    -2.3292 F       
  31 F31            1.7527    -2.8984    -3.5182 F       
  32 F32            1.3791    -0.9096    -2.4580 F       
  33 H33           -0.3156     2.0810     0.4597 H       
  34 H34           -0.5607    -0.3421     0.3605 H       
  35 H35            3.6683    -0.7930    -0.1685 H       
  36 H36            5.1270     1.8508    -0.1976 H       
  37 H37            4.2171     4.2786     0.0441 H       
  38 H38            0.7789    -2.3911     2.1034 H       
  39 H39            0.5076    -4.7914     2.0035 H       
  40 H40            0.7657    -7.2197     1.5901 H       
  41 H41           -1.2608    -8.5988     0.9377 H       
  42 H42           -1.1536    -7.9423    -0.7825 H       
  43 H43            1.1746    -8.9227    -1.0117 H       
  44 H44            1.0674    -9.5792     0.7085 H       
  45 H45            0.0249     3.8998    -1.1347 H       
  46 H46           -1.3732     5.8973    -0.8043 H       
  47 H47            2.6203     5.3522     1.9543 H       
  48 H48            0.7579     7.3621     3.4185 H       
  49 H49            2.3139     7.6644     2.6087 H       
  50 H50            0.8632     8.5704     2.1157 H       
@<TRIPOS>BOND
   1    1    2 ar
   2    1    6 ar
   3    1   33 1
   4    2    3 ar
   5    2   34 1
   6    3    4 ar
   7    3   10 1
   8    4    5 ar
   9    4   35 1
  10    5    6 ar
  11    5    7 1
  12    6    9 1
  13    7    8 2
  14    7   36 1
  15    8    9 1
  16    8   37 1
  17    9   19 1
  18   10   11 2
  19   10   12 1
  20   11   29 1
  21   11   15 1
  22   12   13 2
  23   12   38 1
  24   13   14 1
  25   13   39 1
  26   14   15 1
  27   14   16 1
  28   15   18 2
  29   16   17 2
  30   16   20 1
  31   17   18 1
  32   19   23 ar
  33   19   27 ar
  34   20   21 1
  35   20   22 1
  36   20   40 1
  37   21   22 1
  38   21   41 1
  39   21   42 1
  40   22   43 1
  41   22   44 1
  42   23   24 ar
  43   23   45 1
  44   24   25 ar
  45   24   46 1
  46   25   26 ar
  47   26   27 ar
  48   26   28 1
  49   27   47 1
  50   28   48 1
  51   28   49 1
  52   28   50 1
  53   29   30 1
  54   29   31 1
  55   29   32 1

#	End of record

