#	Name: ASD01000007
#	Creating user name:	WinNT
#	Creation time:	15. 06. 2019 18:54

#	Modifying user name:	WinNT
#	Modification time:	15. 06. 2019 18:54

#	Program:	/corina/corina34_cracker 3.40 0067  02.08.2006

@<TRIPOS>MOLECULE
ASD01000007
  28   30    0    0    0
SMALL
NO_CHARGES


@<TRIPOS>ATOM
   1 C1            -1.0701     3.1793     0.7520 C.ar    
   2 N2            -1.9942     3.5453     1.6339 N.ar    
   3 C3            -1.8631     4.6526     2.3425 C.ar    
   4 N4            -0.8262     5.4527     2.2233 N.ar    
   5 C5             0.0606     4.0021     0.5870 C.ar    
   6 C6             1.2160     3.9513    -0.2224 C.2     
   7 C7             0.1536     5.1724     1.3658 C.ar    
   8 N8             1.3242     5.7782     1.0180 N.pl3   
   9 N9             1.9490     4.9959     0.0386 N.2     
  10 N10           -1.2125     2.0163     0.0188 N.pl3   
  11 C11           -2.3923     1.2722     0.1106 C.ar    
  12 C12           -3.5207    -0.8437     0.0866 C.ar    
  13 C13           -2.3532    -0.1115    -0.0046 C.ar    
  14 C14           -3.6055     1.9144     0.3230 C.ar    
  15 C15           -4.7692     1.1762     0.4131 C.ar    
  16 C16           -4.7276    -0.2007     0.2923 C.ar    
  17 C17           -5.9995    -1.0029     0.3907 C.3     
  18 F18           -6.2264    -1.3555     1.7254 F       
  19 F19           -7.0718    -0.2362    -0.0778 F       
  20 F20           -5.8812    -2.1618    -0.3841 F       
  21 H21           -2.6389     4.9113     3.0479 H       
  22 H22            1.4525     3.1768    -0.9371 H       
  23 H23            1.6657     6.6085     1.3855 H       
  24 H24           -0.4937     1.7165    -0.5595 H       
  25 H25           -3.4910    -1.9196    -0.0029 H       
  26 H26           -1.4110    -0.6143    -0.1656 H       
  27 H27           -3.6387     2.9897     0.4178 H       
  28 H28           -5.7129     1.6749     0.5786 H       
@<TRIPOS>BOND
   1    1    2 ar
   2    1    5 ar
   3    1   10 1
   4    2    3 ar
   5    3    4 ar
   6    3   21 1
   7    4    7 ar
   8    5    7 ar
   9    5    6 1
  10    6    9 2
  11    6   22 1
  12    7    8 1
  13    8    9 1
  14    8   23 1
  15   10   11 1
  16   10   24 1
  17   11   14 ar
  18   11   13 ar
  19   12   13 ar
  20   12   16 ar
  21   12   25 1
  22   13   26 1
  23   14   15 ar
  24   14   27 1
  25   15   16 ar
  26   15   28 1
  27   16   17 1
  28   17   18 1
  29   17   19 1
  30   17   20 1

#	End of record

