#	Name: ASD01420142
#	Creating user name:	WinNT
#	Creation time:	15. 06. 2019 19:20

#	Modifying user name:	WinNT
#	Modification time:	15. 06. 2019 19:20

#	Program:	/corina/corina34_cracker 3.40 0067  02.08.2006

@<TRIPOS>MOLECULE
ASD01420142
  87   90    0    0    0
SMALL
NO_CHARGES


@<TRIPOS>ATOM
   1 C1             1.8840     1.3975     0.9776 C.ar    
   2 C2             1.8964     0.0161     0.9779 C.ar    
   3 C3             1.2741    -0.6822    -0.0467 C.ar    
   4 C4             0.6409     0.0091    -1.0694 C.ar    
   5 C5             0.6314     1.3905    -1.0651 C.ar    
   6 C6             1.2522     2.0841    -0.0428 C.ar    
   7 C7             1.2399     3.5911    -0.0404 C.3     
   8 C8             2.6539     4.1049     0.0467 C.ar    
   9 C9             0.5916     4.0978    -1.3303 C.3     
  10 C10            0.4399     4.0926     1.1636 C.3     
  11 C11            3.5936     3.7008    -0.8836 C.ar    
  12 C12            3.0080     4.9841     1.0534 C.ar    
  13 C13            4.3034     5.4569     1.1351 C.ar    
  14 C14            5.2494     5.0488     0.2060 C.ar    
  15 C15            4.8903     4.1707    -0.8063 C.ar    
  16 O16            6.5245     5.5125     0.2843 O.3     
  17 C17            7.4450     5.0498    -0.7060 C.3     
  18 C18            8.8190     5.6751    -0.4568 C.3     
  19 C19            9.8333     5.0854    -1.4388 C.3     
  20 O20            8.7400     7.0893    -0.6455 O.3     
  21 N21           11.1743     5.5951    -1.1227 N.3     
  22 O22            1.2853    -2.0412    -0.0489 O.3     
  23 C23            0.6248    -2.6936    -1.1352 C.3     
  24 C24            0.7420    -4.2098    -0.9667 C.3     
  25 C25           -0.0695    -4.9086    -2.0594 C.3     
  26 O26            2.1139    -4.5960    -1.0715 O.3     
  27 N27            0.0491    -6.3644    -1.9021 N.3     
  28 C28           -0.7914    -7.0699    -2.8795 C.3     
  29 C29           -0.5795    -8.5788    -2.7356 C.3     
  30 N30           -0.9135    -8.9892    -1.3646 N.3     
  31 C31           -0.0730    -8.2837    -0.3872 C.3     
  32 C32           -0.2849    -6.7748    -0.5311 C.3     
  33 C33           11.6305     5.1020     0.1844 C.3     
  34 C34           12.1337     5.2438    -2.1790 C.3     
  35 C35           13.4964     5.8591    -1.8519 C.3     
  36 N36           13.9526     5.3661    -0.5449 N.3     
  37 C37           12.9932     5.7173     0.5114 C.3     
  38 C38           -0.7949   -10.4450    -1.2073 C.3     
  39 C39           15.2936     5.8758    -0.2288 C.3     
  40 H40            2.3644     1.9416     1.7773 H       
  41 H41            2.3903    -0.5197     1.7750 H       
  42 H42            0.1561    -0.5323    -1.8683 H       
  43 H43            0.1386     1.9291    -1.8610 H       
  44 H44           -0.4311     3.7262    -1.3933 H       
  45 H45            0.5827     5.1878    -1.3286 H       
  46 H46            1.1615     3.7405    -2.1880 H       
  47 H47            0.9018     3.7316     2.0825 H       
  48 H48            0.4310     5.1826     1.1653 H       
  49 H49           -0.5828     3.7210     1.1006 H       
  50 H50            3.3136     3.0169    -1.6712 H       
  51 H51            2.2711     5.3017     1.7762 H       
  52 H52            4.5794     6.1439     1.9214 H       
  53 H53            5.6240     3.8545    -1.5329 H       
  54 H54            7.5242     3.9642    -0.6494 H       
  55 H55            7.0891     5.3371    -1.6954 H       
  56 H56            9.1355     5.4618     0.5642 H       
  57 H57            9.8290     3.9985    -1.3566 H       
  58 H58            9.5652     5.3739    -2.4551 H       
  59 H59            8.4635     7.3528    -1.5339 H       
  60 H60           -0.4275    -2.4093    -1.1441 H       
  61 H61            1.0897    -2.3954    -2.0749 H       
  62 H62            0.3573    -4.4975     0.0117 H       
  63 H63           -1.1168    -4.6182    -1.9761 H       
  64 H64            0.3118    -4.6167    -3.0379 H       
  65 H65            2.5223    -4.3706    -1.9185 H       
  66 H66           -1.8393    -6.8309    -2.6977 H       
  67 H67           -0.5167    -6.7585    -3.8873 H       
  68 H68           -1.2235    -9.1053    -3.4400 H       
  69 H69            0.4626    -8.8211    -2.9441 H       
  70 H70           -0.3477    -8.5951     0.6206 H       
  71 H71            0.9749    -8.5227    -0.5690 H       
  72 H72            0.3591    -6.2483     0.1733 H       
  73 H73           -1.3270    -6.5325    -0.3226 H       
  74 H74           10.9100     5.3853     0.9516 H       
  75 H75           11.7201     4.0162     0.1524 H       
  76 H76           12.2290     4.1596    -2.2378 H       
  77 H77           11.7801     5.6305    -3.1348 H       
  78 H78           14.2169     5.5758    -2.6192 H       
  79 H79           13.4068     6.9449    -1.8199 H       
  80 H80           12.8979     6.8016     0.5703 H       
  81 H81           13.3468     5.3306     1.4672 H       
  82 H82            0.2282   -10.7518    -1.4245 H       
  83 H83           -1.0476   -10.7216    -0.1837 H       
  84 H84           -1.4774   -10.9417    -1.8969 H       
  85 H85           15.2714     6.9652    -0.2030 H       
  86 H86           15.6069     5.4956     0.7436 H       
  87 H87           15.9975     5.5446    -0.9923 H       
@<TRIPOS>BOND
   1    1    2 ar
   2    1    6 ar
   3    1   40 1
   4    2    3 ar
   5    2   41 1
   6    3    4 ar
   7    3   22 1
   8    4    5 ar
   9    4   42 1
  10    5    6 ar
  11    5   43 1
  12    6    7 1
  13    7    8 1
  14    7    9 1
  15    7   10 1
  16    8   12 ar
  17    8   11 ar
  18    9   44 1
  19    9   45 1
  20    9   46 1
  21   10   47 1
  22   10   48 1
  23   10   49 1
  24   11   15 ar
  25   11   50 1
  26   12   13 ar
  27   12   51 1
  28   13   14 ar
  29   13   52 1
  30   14   15 ar
  31   14   16 1
  32   15   53 1
  33   16   17 1
  34   17   18 1
  35   17   54 1
  36   17   55 1
  37   18   19 1
  38   18   20 1
  39   18   56 1
  40   19   21 1
  41   19   57 1
  42   19   58 1
  43   20   59 1
  44   21   34 1
  45   21   33 1
  46   22   23 1
  47   23   24 1
  48   23   60 1
  49   23   61 1
  50   24   25 1
  51   24   26 1
  52   24   62 1
  53   25   27 1
  54   25   63 1
  55   25   64 1
  56   26   65 1
  57   27   28 1
  58   27   32 1
  59   28   29 1
  60   28   66 1
  61   28   67 1
  62   29   30 1
  63   29   68 1
  64   29   69 1
  65   30   31 1
  66   30   38 1
  67   31   32 1
  68   31   70 1
  69   31   71 1
  70   32   72 1
  71   32   73 1
  72   33   37 1
  73   33   74 1
  74   33   75 1
  75   34   35 1
  76   34   76 1
  77   34   77 1
  78   35   36 1
  79   35   78 1
  80   35   79 1
  81   36   37 1
  82   36   39 1
  83   37   80 1
  84   37   81 1
  85   38   82 1
  86   38   83 1
  87   38   84 1
  88   39   85 1
  89   39   86 1
  90   39   87 1

#	End of record

