#	Name: ASD03090321
#	Creating user name:	WinNT
#	Creation time:	15. 06. 2019 20:28

#	Modifying user name:	WinNT
#	Modification time:	15. 06. 2019 20:28

#	Program:	/corina/corina34_cracker 3.40 0067  02.08.2006

@<TRIPOS>MOLECULE
ASD03090321
  47   49    0    0    0
SMALL
NO_CHARGES


@<TRIPOS>ATOM
   1 N1             0.2201     1.3076     1.8557 N.ar    
   2 C2             0.2293     0.0023     1.6310 C.ar    
   3 C3             1.3681    -0.6256     1.1430 C.ar    
   4 C4             2.5073     0.1415     0.8917 C.ar    
   5 C5             2.4486     1.5177     1.1450 C.ar    
   6 C6             1.2787     2.0625     1.6293 C.ar    
   7 C7             3.7444    -0.4833     0.3718 C.2     
   8 N8             5.5652    -3.0667    -1.1659 N.pl3   
   9 C9             4.6698    -4.0870    -1.5026 C.ar    
  10 C10            3.3599    -3.7776    -1.8444 C.ar    
  11 C11            2.4762    -4.7862    -2.1774 C.ar    
  12 C12            2.8949    -6.1052    -2.1707 C.ar    
  13 C13            4.2025    -6.4178    -1.8293 C.ar    
  14 C14            5.0912    -5.4105    -1.5011 C.ar    
  15 N15            3.8345    -1.6695    -0.1952 N.2     
  16 C16            5.1002    -1.9077    -0.5416 C.2     
  17 N17            5.8388    -0.8764    -0.2008 N.2     
  18 N18            4.9798     0.0646     0.3897 N.pl3   
  19 C19            5.3507     1.3762     0.9267 C.3     
  20 C20            6.8744     1.5154     0.9258 C.3     
  21 C21            7.2643     2.8576     1.5482 C.3     
  22 F22            2.0289    -7.0896    -2.4966 F       
  23 F23            4.6092    -7.7061    -1.8224 F       
  24 N24           -0.9133    -0.7476     1.8868 N.pl3   
  25 O25            7.3574     1.4552    -0.4177 O.3     
  26 C26           -0.9118    -2.1919     1.6411 C.3     
  27 C27           -2.2809    -2.7719     2.0017 C.3     
  28 H28            1.3724    -1.6902     0.9612 H       
  29 H29            3.3094     2.1442     0.9635 H       
  30 H30            1.2276     3.1231     1.8265 H       
  31 H31            6.5093    -3.1644    -1.3661 H       
  32 H32            3.0318    -2.7486    -1.8497 H       
  33 H33            1.4575    -4.5450    -2.4428 H       
  34 H34            6.1095    -5.6533    -1.2356 H       
  35 H35            4.9139     2.1593     0.3070 H       
  36 H36            4.9779     1.4698     1.9467 H       
  37 H37            7.3137     0.7043     1.5065 H       
  38 H38            6.8958     2.9036     2.5730 H       
  39 H39            8.3497     2.9568     1.5476 H       
  40 H40            6.8250     3.6687     0.9675 H       
  41 H41           -1.7114    -0.3145     2.2280 H       
  42 H42            6.9513     2.1018    -1.0111 H       
  43 H43           -0.7030    -2.3811     0.5882 H       
  44 H44           -0.1442    -2.6640     2.2544 H       
  45 H45           -3.0485    -2.2999     1.3885 H       
  46 H46           -2.2798    -3.8465     1.8189 H       
  47 H47           -2.4898    -2.5827     3.0547 H       
@<TRIPOS>BOND
   1    1    2 ar
   2    1    6 ar
   3    2    3 ar
   4    2   24 1
   5    3    4 ar
   6    3   28 1
   7    4    5 ar
   8    4    7 1
   9    5    6 ar
  10    5   29 1
  11    6   30 1
  12    7   15 2
  13    7   18 1
  14    8    9 1
  15    8   16 1
  16    8   31 1
  17    9   10 ar
  18    9   14 ar
  19   10   11 ar
  20   10   32 1
  21   11   12 ar
  22   11   33 1
  23   12   13 ar
  24   12   22 1
  25   13   14 ar
  26   13   23 1
  27   14   34 1
  28   15   16 1
  29   16   17 2
  30   17   18 1
  31   18   19 1
  32   19   20 1
  33   19   35 1
  34   19   36 1
  35   20   21 1
  36   20   25 1
  37   20   37 1
  38   21   38 1
  39   21   39 1
  40   21   40 1
  41   24   26 1
  42   24   41 1
  43   25   42 1
  44   26   27 1
  45   26   43 1
  46   26   44 1
  47   27   45 1
  48   27   46 1
  49   27   47 1

#	End of record

