#	Name: ASD01880511
#	Creating user name:	WinNT
#	Creation time:	15. 06. 2019 19:40

#	Modifying user name:	WinNT
#	Modification time:	15. 06. 2019 19:40

#	Program:	/corina/corina34_cracker 3.40 0067  02.08.2006

@<TRIPOS>MOLECULE
ASD01880511
  49   52    0    0    0
SMALL
NO_CHARGES


@<TRIPOS>ATOM
   1 N1             0.0645     1.3765    -0.6397 N.ar    
   2 C2             0.1102     0.0792    -0.8731 C.ar    
   3 N3             1.2186    -0.6174    -0.7100 N.ar    
   4 C4             2.3363    -0.0341    -0.3028 C.ar    
   5 C5             2.3334     1.3243    -0.0469 C.ar    
   6 C6             1.1453     2.0302    -0.2289 C.ar    
   7 C7             3.5840     2.0248     0.4183 C.3     
   8 O8             4.6493     1.0782     0.5231 O.3     
   9 C9             5.8542     1.5494     0.9329 C.ar    
  10 C10            6.9346     0.6812     1.0565 C.ar    
  11 C11            8.1529     1.1592     1.4706 C.ar    
  12 C12            8.3164     2.5159     1.7700 C.ar    
  13 C13            7.2281     3.3836     1.6437 C.ar    
  14 C14            6.0093     2.8996     1.2231 C.ar    
  15 C15            9.4930     0.5073     1.7041 C.3     
  16 N16           10.3969     1.5754     2.1459 N.am    
  17 C17            9.7140     2.7325     2.1825 C.2     
  18 O18           10.1831     3.8056     2.5092 O.2     
  19 Cl19          -1.3271    -0.7338    -1.4087 Cl      
  20 O20            1.0939     3.3633     0.0092 O.3     
  21 C21           -0.1132     3.9813    -0.0805 C.ar    
  22 C22           -1.0446     3.8383     0.9379 C.ar    
  23 C23           -2.2706     4.4679     0.8445 C.ar    
  24 C24           -2.5699     5.2402    -0.2627 C.ar    
  25 C25           -1.6435     5.3843    -1.2789 C.ar    
  26 C26           -0.4140     4.7611    -1.1880 C.ar    
  27 C27           14.1449     1.4335     1.5998 C.3     
  28 C28           12.6682     1.6082     1.2395 C.3     
  29 C29           11.8108     1.4081     2.4909 C.3     
  30 H30            3.2386    -0.6130    -0.1719 H       
  31 H31            3.8552     2.7990    -0.2994 H       
  32 H32            3.4047     2.4794     1.3926 H       
  33 H33            6.8147    -0.3673     0.8272 H       
  34 H34            7.3436     4.4327     1.8727 H       
  35 H35            5.1688     3.5708     1.1254 H       
  36 H36            9.4087    -0.2560     2.4776 H       
  37 H37            9.8606     0.0644     0.7784 H       
  38 H38           -0.8114     3.2349     1.8027 H       
  39 H39           -2.9960     4.3565     1.6368 H       
  40 H40           -3.5291     5.7313    -0.3340 H       
  41 H41           -1.8798     5.9878    -2.1429 H       
  42 H42            0.3094     4.8743    -1.9818 H       
  43 H43           14.7557     1.5760     0.7083 H       
  44 H44           14.4246     2.1697     2.3534 H       
  45 H45           14.3064     0.4303     1.9943 H       
  46 H46           12.5067     2.6114     0.8450 H       
  47 H47           12.3885     0.8720     0.4860 H       
  48 H48           12.0905     2.1443     3.2444 H       
  49 H49           11.9723     0.4050     2.8854 H       
@<TRIPOS>BOND
   1    1    2 ar
   2    1    6 ar
   3    2    3 ar
   4    2   19 1
   5    3    4 ar
   6    4    5 ar
   7    4   30 1
   8    5    6 ar
   9    5    7 1
  10    6   20 1
  11    7    8 1
  12    7   31 1
  13    7   32 1
  14    8    9 1
  15    9   10 ar
  16    9   14 ar
  17   10   11 ar
  18   10   33 1
  19   11   12 ar
  20   11   15 1
  21   12   13 ar
  22   12   17 1
  23   13   14 ar
  24   13   34 1
  25   14   35 1
  26   15   16 1
  27   15   36 1
  28   15   37 1
  29   16   17 am
  30   16   29 1
  31   17   18 2
  32   20   21 1
  33   21   22 ar
  34   21   26 ar
  35   22   23 ar
  36   22   38 1
  37   23   24 ar
  38   23   39 1
  39   24   25 ar
  40   24   40 1
  41   25   26 ar
  42   25   41 1
  43   26   42 1
  44   27   28 1
  45   27   43 1
  46   27   44 1
  47   27   45 1
  48   28   29 1
  49   28   46 1
  50   28   47 1
  51   29   48 1
  52   29   49 1

#	End of record

