#	Name: ASD01814628
#	Creating user name:	WinNT
#	Creation time:	15. 06. 2019 19:32

#	Modifying user name:	WinNT
#	Modification time:	15. 06. 2019 19:32

#	Program:	/corina/corina34_cracker 3.40 0067  02.08.2006

@<TRIPOS>MOLECULE
ASD01814628
  45   48    0    0    0
SMALL
NO_CHARGES


@<TRIPOS>ATOM
   1 N1             0.0195     1.3260    -0.5418 N.2     
   2 C2             0.0435     0.0246    -0.7085 C.2     
   3 C3             1.2624    -0.6400    -0.9127 C.2     
   4 C4             2.4150     0.0741    -0.9364 C.2     
   5 N5             2.3616     1.4275    -0.7603 N.pl3   
   6 C6             1.1517     2.0416    -0.5633 C.2     
   7 N7             3.3490     2.4177    -0.7321 N.2     
   8 C8             2.7755     3.5864    -0.5275 C.2     
   9 C9             1.4078     3.3998    -0.4172 C.2     
  10 C10            3.0772     5.0566    -0.3714 C.3     
  11 N11            1.8049     5.7533    -0.1581 N.am    
  12 C12            0.7498     4.7353    -0.1832 C.3     
  13 C13            1.6370     7.0778     0.0261 C.2     
  14 C14            2.8128     7.9629     0.1314 C.ar    
  15 C15            2.8838     8.9208     1.1508 C.ar    
  16 C16            3.8638     7.8459    -0.7819 C.ar    
  17 C17            4.9614     8.6760    -0.6785 C.ar    
  18 C18            5.0263     9.6267     0.3293 C.ar    
  19 C19            3.9948     9.7487     1.2417 C.ar    
  20 O20            0.5166     7.5434     0.1056 O.2     
  21 O21            1.8703     9.0395     2.0461 O.3     
  22 C22            1.9562     8.2471     3.2322 C.3     
  23 C23           -1.2432    -0.7594    -0.6799 C.3     
  24 Cl24           1.2946    -2.3617    -1.1326 Cl      
  25 C25            3.7369    -0.6162    -1.1536 C.3     
  26 C26            0.7340     8.5135     4.1132 C.3     
  27 F27            4.0682    10.6742     2.2232 F       
  28 F28            5.9769     8.5619    -1.5621 F       
  29 H29            3.7309     5.2104     0.4871 H       
  30 H30            3.5575     5.4330    -1.2746 H       
  31 H31            0.0492     4.9485    -0.9906 H       
  32 H32            0.2233     4.7257     0.7711 H       
  33 H33            3.8174     7.1064    -1.5677 H       
  34 H34            5.8887    10.2724     0.4039 H       
  35 H35            1.9865     7.1914     2.9624 H       
  36 H36            2.8622     8.5085     3.7790 H       
  37 H37           -2.0789    -0.0802    -0.5113 H       
  38 H38           -1.3778    -1.2717    -1.6325 H       
  39 H39           -1.2036    -1.4935     0.1249 H       
  40 H40            3.5723    -1.6872    -1.2722 H       
  41 H41            4.2106    -0.2198    -2.0516 H       
  42 H42            4.3838    -0.4410    -0.2940 H       
  43 H43            0.7037     9.5692     4.3829 H       
  44 H44           -0.1719     8.2521     3.5664 H       
  45 H45            0.7995     7.9091     5.0178 H       
@<TRIPOS>BOND
   1    1    2 2
   2    1    6 1
   3    2    3 1
   4    2   23 1
   5    3    4 2
   6    3   24 1
   7    4    5 1
   8    4   25 1
   9    5    7 1
  10    5    6 1
  11    6    9 2
  12    7    8 2
  13    8   10 1
  14    8    9 1
  15    9   12 1
  16   10   11 1
  17   10   29 1
  18   10   30 1
  19   11   12 1
  20   11   13 am
  21   12   31 1
  22   12   32 1
  23   13   14 1
  24   13   20 2
  25   14   16 ar
  26   14   15 ar
  27   15   19 ar
  28   15   21 1
  29   16   17 ar
  30   16   33 1
  31   17   18 ar
  32   17   28 1
  33   18   19 ar
  34   18   34 1
  35   19   27 1
  36   21   22 1
  37   22   26 1
  38   22   35 1
  39   22   36 1
  40   23   37 1
  41   23   38 1
  42   23   39 1
  43   25   40 1
  44   25   41 1
  45   25   42 1
  46   26   43 1
  47   26   44 1
  48   26   45 1

#	End of record

