#	Name: ASD00960195
#	Creating user name:	WinNT
#	Creation time:	15. 06. 2019 18:53

#	Modifying user name:	WinNT
#	Modification time:	15. 06. 2019 18:53

#	Program:	/corina/corina34_cracker 3.40 0067  02.08.2006

@<TRIPOS>MOLECULE
ASD00960195
  46   48    0    0    0
SMALL
NO_CHARGES


@<TRIPOS>ATOM
   1 C1            -0.0168     1.3881     0.0097 C.2     
   2 C2             0.0021    -0.0041     0.0020 C.2     
   3 N3             1.2760     1.8327    -0.0003 N.pl3   
   4 C4             2.1098     0.7438    -0.0141 C.2     
   5 C5             1.3263    -0.4038    -0.0128 C.2     
   6 N6             1.8446     3.1140     0.0007 N.2     
   7 C7             3.1538     3.2522    -0.0114 C.2     
   8 N8             3.9756     2.1953    -0.0249 N.2     
   9 C9             3.5102     0.9606    -0.0259 C.2     
  10 N10            4.3805    -0.1114    -0.0399 N.pl3   
  11 C11            3.7145     4.5699    -0.0106 C.1     
  12 C12            4.1742     5.6501    -0.0099 C.1     
  13 Si13           4.9182     7.3984    -0.0088 Si      
  14 C14            6.7775     7.2821    -0.0275 C.3     
  15 C15            4.3385     8.3209    -1.5200 C.3     
  16 C16            4.3682     8.3064     1.5221 C.3     
  17 C17           -1.2118     2.2287     0.0202 C.2     
  18 O18           -2.3157     1.7169     0.0233 O.2     
  19 O19           -1.0913     3.5728     0.0264 O.3     
  20 C20           -2.3015     4.3326     0.0365 C.3     
  21 C21           -1.9714     5.8030     0.0423 C.ar    
  22 C22           -1.8262     6.4835    -1.1522 C.ar    
  23 C23           -1.5234     7.8322    -1.1469 C.ar    
  24 C24           -1.3661     8.5006     0.0528 C.ar    
  25 C25           -1.5122     7.8203     1.2473 C.ar    
  26 C26           -1.8193     6.4726     1.2421 C.ar    
  27 H27           -0.8605    -0.6539     0.0071 H       
  28 H28            1.6857    -1.4222    -0.0213 H       
  29 H29            5.3383     0.0415    -0.0490 H       
  30 H30            4.0340    -1.0175    -0.0405 H       
  31 H31            7.0993     6.7508    -0.9232 H       
  32 H32            7.2043     8.2850    -0.0269 H       
  33 H33            7.1167     6.7423     0.8566 H       
  34 H34            3.2507     8.3890    -1.5090 H       
  35 H35            4.7653     9.3239    -1.5194 H       
  36 H36            4.6603     7.7897    -2.4157 H       
  37 H37            4.7074     7.7667     2.4063 H       
  38 H38            4.7950     9.3094     1.5227 H       
  39 H39            3.2804     8.3745     1.5330 H       
  40 H40           -2.8871     4.0952    -0.8516 H       
  41 H41           -2.8778     4.0861     0.9283 H       
  42 H42           -1.9491     5.9613    -2.0895 H       
  43 H43           -1.4093     8.3637    -2.0801 H       
  44 H44           -1.1288     9.5542     0.0570 H       
  45 H45           -1.3890     8.3425     2.1847 H       
  46 H46           -1.9371     5.9419     2.1753 H       
@<TRIPOS>BOND
   1    1    2 2
   2    1    3 1
   3    1   17 1
   4    2    5 1
   5    2   27 1
   6    3    4 1
   7    3    6 1
   8    4    5 2
   9    4    9 1
  10    5   28 1
  11    6    7 2
  12    7    8 1
  13    7   11 1
  14    8    9 2
  15    9   10 1
  16   10   29 1
  17   10   30 1
  18   11   12 3
  19   12   13 1
  20   13   14 1
  21   13   15 1
  22   13   16 1
  23   14   31 1
  24   14   32 1
  25   14   33 1
  26   15   34 1
  27   15   35 1
  28   15   36 1
  29   16   37 1
  30   16   38 1
  31   16   39 1
  32   17   18 2
  33   17   19 1
  34   19   20 1
  35   20   21 1
  36   20   40 1
  37   20   41 1
  38   21   22 ar
  39   21   26 ar
  40   22   23 ar
  41   22   42 1
  42   23   24 ar
  43   23   43 1
  44   24   25 ar
  45   24   44 1
  46   25   26 ar
  47   25   45 1
  48   26   46 1

#	End of record

