#	Name: ASD03330177
#	Creating user name:	WinNT
#	Creation time:	15. 06. 2019 20:36

#	Modifying user name:	WinNT
#	Modification time:	15. 06. 2019 20:36

#	Program:	/corina/corina34_cracker 3.40 0067  02.08.2006

@<TRIPOS>MOLECULE
ASD03330177
  49   52    0    0    0
SMALL
NO_CHARGES


@<TRIPOS>ATOM
   1 C1             0.5875     0.5983     3.0015 C.ar    
   2 C2             0.3349    -0.1451     1.8633 C.ar    
   3 C3             1.3834    -0.6169     1.0981 C.ar    
   4 C4             2.6924    -0.3440     1.4729 C.ar    
   5 C5             2.9427     0.4029     2.6165 C.ar    
   6 C6             1.8898     0.8718     3.3775 C.ar    
   7 N7             3.7570    -0.8210     0.7000 N.am    
   8 C8             4.8926    -0.1020     0.6003 C.2     
   9 N9             5.9559    -0.6089    -0.0546 N.am    
  10 O10            4.9578     1.0040     1.1012 O.2     
  11 C11            7.0964     0.1778    -0.2519 C.ar    
  12 C12            8.3516    -0.4108    -0.2622 C.ar    
  13 C13            9.4837     0.3762    -0.4589 C.ar    
  14 C14            9.3485     1.7509    -0.6443 C.ar    
  15 C15            8.0948     2.3294    -0.6327 C.ar    
  16 C16            6.9707     1.5485    -0.4433 C.ar    
  17 C17           10.8298    -0.2470    -0.4705 C.ar    
  18 N18           10.9493    -1.5574    -0.2926 N.ar    
  19 C19           11.9547     0.5464    -0.6734 C.ar    
  20 C20           13.2083    -0.0458    -0.6830 C.ar    
  21 C21           13.2965    -1.4134    -0.4891 C.ar    
  22 C22           12.1315    -2.1507    -0.2967 C.ar    
  23 N23           12.2118    -3.5245    -0.1009 N.3     
  24 C24           10.8717    -4.1113     0.0822 C.3     
  25 C25           10.7002    -5.2040    -0.9940 C.3     
  26 C26           12.1635    -5.5644    -1.3623 C.3     
  27 C27           12.8625    -4.1865    -1.2516 C.3     
  28 H28           -0.2342     0.9700     3.5957 H       
  29 H29           -0.6833    -0.3573     1.5725 H       
  30 H30            1.1855    -1.1979     0.2094 H       
  31 H31            3.9597     0.6165     2.9108 H       
  32 H32            2.0838     1.4528     4.2670 H       
  33 H33            3.6777    -1.6691     0.2360 H       
  34 H34            5.9307    -1.5190    -0.3892 H       
  35 H35            8.4512    -1.4765    -0.1177 H       
  36 H36           10.2245     2.3638    -0.7967 H       
  37 H37            7.9922     3.3949    -0.7766 H       
  38 H38            5.9923     2.0058    -0.4355 H       
  39 H39           11.8524     1.6112    -0.8221 H       
  40 H40           14.0972     0.5475    -0.8388 H       
  41 H41           14.2586    -1.9040    -0.4915 H       
  42 H42           10.7930    -4.5535     1.0754 H       
  43 H43           10.1096    -3.3425    -0.0453 H       
  44 H44           10.1814    -6.0706    -0.5841 H       
  45 H45           10.1701    -4.8108    -1.8614 H       
  46 H46           12.5826    -6.2734    -0.6483 H       
  47 H47           12.2258    -5.9533    -2.3787 H       
  48 H48           12.7054    -3.6071    -2.1613 H       
  49 H49           13.9281    -4.3157    -1.0622 H       
@<TRIPOS>BOND
   1    1    2 ar
   2    1    6 ar
   3    1   28 1
   4    2    3 ar
   5    2   29 1
   6    3    4 ar
   7    3   30 1
   8    4    5 ar
   9    4    7 1
  10    5    6 ar
  11    5   31 1
  12    6   32 1
  13    7    8 am
  14    7   33 1
  15    8    9 am
  16    8   10 2
  17    9   11 1
  18    9   34 1
  19   11   12 ar
  20   11   16 ar
  21   12   13 ar
  22   12   35 1
  23   13   14 ar
  24   13   17 1
  25   14   15 ar
  26   14   36 1
  27   15   16 ar
  28   15   37 1
  29   16   38 1
  30   17   18 ar
  31   17   19 ar
  32   18   22 ar
  33   19   20 ar
  34   19   39 1
  35   20   21 ar
  36   20   40 1
  37   21   22 ar
  38   21   41 1
  39   22   23 1
  40   23   24 1
  41   23   27 1
  42   24   25 1
  43   24   42 1
  44   24   43 1
  45   25   26 1
  46   25   44 1
  47   25   45 1
  48   26   27 1
  49   26   46 1
  50   26   47 1
  51   27   48 1
  52   27   49 1

#	End of record

