#	Name: ASD01811532
#	Creating user name:	WinNT
#	Creation time:	15. 06. 2019 19:26

#	Modifying user name:	WinNT
#	Modification time:	15. 06. 2019 19:26

#	Program:	/corina/corina34_cracker 3.40 0067  02.08.2006

@<TRIPOS>MOLECULE
ASD01811532
  59   63    0    0    0
SMALL
NO_CHARGES


@<TRIPOS>ATOM
   1 C1            -6.2800     2.1682    -4.4356 C.1     
   2 C2            -5.4115     3.0303    -3.6919 C.ar    
   3 C3            -4.1960     2.5481    -3.2022 C.ar    
   4 C4            -3.3641     3.3840    -2.4865 C.ar    
   5 C5            -3.7319     4.6972    -2.2532 C.ar    
   6 C6            -4.9351     5.1814    -2.7352 C.ar    
   7 C7            -5.7735     4.3584    -3.4582 C.ar    
   8 N8            -6.9691     1.4844    -5.0256 N.1     
   9 N9            -2.0968     8.0669    -0.2803 N.am    
  10 C10           -1.4606     7.6995    -1.5526 C.3     
  11 C11           -2.4167     6.7979    -2.3398 C.3     
  12 C12           -2.8181     5.6043    -1.4701 C.3     
  13 C13           -3.5450     6.1038    -0.2194 C.3     
  14 C14           -2.6016     6.9976     0.5918 C.3     
  15 C15           -2.2103     9.3599     0.0826 C.2     
  16 C16           -2.9399     9.7200     1.3173 C.ar    
  17 C17           -4.0109    10.6144     1.2619 C.ar    
  18 C18           -4.6919    10.9506     2.4143 C.ar    
  19 C19           -4.3190    10.4054     3.6279 C.ar    
  20 C20           -3.2517     9.5116     3.6960 C.ar    
  21 C21           -2.5641     9.1633     2.5385 C.ar    
  22 O22           -1.7128    10.2300    -0.6050 O.2     
  23 N23           -2.2779     7.5287     6.5570 N.2     
  24 N24           -2.3308     8.7176     7.0428 N.pl3   
  25 N25           -2.6702     9.5699     6.1418 N.2     
  26 C26           -2.8534     8.9273     5.0017 C.2     
  27 C27           -2.5917     7.5740     5.2834 C.2     
  28 C28           -4.4234    11.2137    -0.0578 C.3     
  29 C29           -5.0679    10.7784     4.8812 C.3     
  30 C30           -5.1173    12.2933     5.1415 C.3     
  31 C31           -6.5741    12.0893     5.5898 C.3     
  32 C32           -6.5928    10.8408     4.6922 C.3     
  33 H33           -3.9080     1.5230    -3.3830 H       
  34 H34           -2.4237     3.0124    -2.1071 H       
  35 H35           -5.2163     6.2075    -2.5492 H       
  36 H36           -6.7102     4.7390    -3.8380 H       
  37 H37           -1.2498     8.6002    -2.1292 H       
  38 H38           -0.5321     7.1636    -1.3556 H       
  39 H39           -3.3070     7.3636    -2.6144 H       
  40 H40           -1.9199     6.4401    -3.2416 H       
  41 H41           -1.9251     5.0533    -1.1752 H       
  42 H42           -4.4246     6.6761    -0.5140 H       
  43 H43           -3.8511     5.2521     0.3880 H       
  44 H44           -1.7661     6.4045     0.9638 H       
  45 H45           -3.1436     7.4351     1.4302 H       
  46 H46           -5.5195    11.6430     2.3674 H       
  47 H47           -1.7396     8.4673     2.5863 H       
  48 H48           -2.1403     8.9421     7.9671 H       
  49 H49           -2.6386     6.7441     4.5940 H       
  50 H50           -5.0935    10.5271    -0.5751 H       
  51 H51           -4.9363    12.1594     0.1170 H       
  52 H52           -3.5385    11.3881    -0.6700 H       
  53 H53           -4.7576    10.1962     5.7489 H       
  54 H54           -4.4554    12.6203     5.9434 H       
  55 H55           -5.0186    12.8950     4.2380 H       
  56 H56           -6.6769    11.8653     6.6516 H       
  57 H57           -7.2483    12.8777     5.2552 H       
  58 H58           -6.8976    11.0454     3.6659 H       
  59 H59           -7.1221     9.9952     5.1314 H       
@<TRIPOS>BOND
   1    1    2 1
   2    1    8 3
   3    2    3 ar
   4    2    7 ar
   5    3    4 ar
   6    3   33 1
   7    4    5 ar
   8    4   34 1
   9    5    6 ar
  10    5   12 1
  11    6    7 ar
  12    6   35 1
  13    7   36 1
  14    9   10 1
  15    9   14 1
  16    9   15 am
  17   10   11 1
  18   10   37 1
  19   10   38 1
  20   11   12 1
  21   11   39 1
  22   11   40 1
  23   12   13 1
  24   12   41 1
  25   13   14 1
  26   13   42 1
  27   13   43 1
  28   14   44 1
  29   14   45 1
  30   15   16 1
  31   15   22 2
  32   16   17 ar
  33   16   21 ar
  34   17   18 ar
  35   17   28 1
  36   18   19 ar
  37   18   46 1
  38   19   20 ar
  39   19   29 1
  40   20   21 ar
  41   20   26 1
  42   21   47 1
  43   23   24 1
  44   23   27 2
  45   24   25 1
  46   24   48 1
  47   25   26 2
  48   26   27 1
  49   27   49 1
  50   28   50 1
  51   28   51 1
  52   28   52 1
  53   29   30 1
  54   29   32 1
  55   29   53 1
  56   30   31 1
  57   30   54 1
  58   30   55 1
  59   31   32 1
  60   31   56 1
  61   31   57 1
  62   32   58 1
  63   32   59 1

#	End of record

