#	Name: ASD01814408
#	Creating user name:	WinNT
#	Creation time:	15. 06. 2019 19:32

#	Modifying user name:	WinNT
#	Modification time:	15. 06. 2019 19:32

#	Program:	/corina/corina34_cracker 3.40 0067  02.08.2006

@<TRIPOS>MOLECULE
ASD01814408
  52   57    0    0    0
SMALL
NO_CHARGES


@<TRIPOS>ATOM
   1 C1            -0.0167     1.3819     0.0096 C.ar    
   2 C2             0.0021    -0.0041     0.0020 C.ar    
   3 C3             1.1970    -0.6935    -0.0126 C.ar    
   4 C4             2.3990     0.0035    -0.0203 C.ar    
   5 C5             2.3751     1.4118    -0.0130 C.ar    
   6 C6             1.1661     2.0940     0.0022 C.ar    
   7 N7             3.6102    -0.6576    -0.0345 N.pl3   
   8 N8             4.7455    -0.0610    -0.0412 N.2     
   9 C9             4.8827     1.2396    -0.0359 C.2     
  10 C10            3.6768     2.1037    -0.0217 C.2     
  11 C11            6.0122     2.1721    -0.0414 C.2     
  12 N12            5.4770     3.4118    -0.0308 N.am    
  13 N13            4.0817     3.3389    -0.0192 N.2     
  14 C14            3.5986    -2.1226    -0.0417 C.3     
  15 C15            3.5819    -2.6178    -1.4650 C.ar    
  16 C16            4.7725    -2.8539    -2.1274 C.ar    
  17 C17            4.7604    -3.3073    -3.4319 C.ar    
  18 C18            3.5512    -3.5264    -4.0781 C.ar    
  19 C19            2.3574    -3.2888    -3.4102 C.ar    
  20 C20            2.3759    -2.8404    -2.1039 C.ar    
  21 O21            7.1977     1.8864    -0.0531 O.2     
  22 C22            6.2134     4.5982    -0.0312 C.ar    
  23 C23            7.1657     4.8484    -1.0189 C.ar    
  24 C24            7.8725     6.0321    -0.9855 C.ar    
  25 N25            7.6575     6.9228    -0.0353 N.ar    
  26 C26            6.7645     6.7238     0.9184 C.ar    
  27 C27            6.0114     5.5646     0.9517 C.ar    
  28 C28            4.9945     5.3450     2.0420 C.3     
  29 F29            6.5818     7.6661     1.8691 F       
  30 N30            3.5357    -3.9862    -5.4023 N.pl3   
  31 C31            2.4337    -4.2390    -6.1441 C.2     
  32 C32            2.8452    -4.6634    -7.3613 C.2     
  33 C33            4.2444    -4.6707    -7.3646 C.2     
  34 N34            4.6590    -4.2593    -6.1934 N.2     
  35 H35           -0.9605     1.9069     0.0169 H       
  36 H36           -0.9294    -0.5505     0.0080 H       
  37 H37            1.1981    -1.7735    -0.0177 H       
  38 H38            1.1510     3.1738     0.0081 H       
  39 H39            4.4902    -2.4955     0.4623 H       
  40 H40            2.7104    -2.4815     0.4783 H       
  41 H41            5.7128    -2.6833    -1.6243 H       
  42 H42            5.6906    -3.4909    -3.9490 H       
  43 H43            1.4153    -3.4580    -3.9103 H       
  44 H44            1.4477    -2.6554    -1.5839 H       
  45 H45            7.3475     4.1245    -1.7994 H       
  46 H46            8.6118     6.2329    -1.7467 H       
  47 H47            4.0303     5.7425     1.7250 H       
  48 H48            4.8998     4.2775     2.2408 H       
  49 H49            5.3178     5.8562     2.9488 H       
  50 H50            1.4091    -4.1235    -5.8226 H       
  51 H51            2.2064    -4.9466    -8.1848 H       
  52 H52            4.8739    -4.9613    -8.1927 H       
@<TRIPOS>BOND
   1    1    2 ar
   2    1    6 ar
   3    1   35 1
   4    2    3 ar
   5    2   36 1
   6    3    4 ar
   7    3   37 1
   8    4    5 ar
   9    4    7 1
  10    5    6 ar
  11    5   10 1
  12    6   38 1
  13    7    8 1
  14    7   14 1
  15    8    9 2
  16    9   10 1
  17    9   11 1
  18   10   13 2
  19   11   12 am
  20   11   21 2
  21   12   13 1
  22   12   22 1
  23   14   15 1
  24   14   39 1
  25   14   40 1
  26   15   16 ar
  27   15   20 ar
  28   16   17 ar
  29   16   41 1
  30   17   18 ar
  31   17   42 1
  32   18   19 ar
  33   18   30 1
  34   19   20 ar
  35   19   43 1
  36   20   44 1
  37   22   23 ar
  38   22   27 ar
  39   23   24 ar
  40   23   45 1
  41   24   25 ar
  42   24   46 1
  43   25   26 ar
  44   26   27 ar
  45   26   29 1
  46   27   28 1
  47   28   47 1
  48   28   48 1
  49   28   49 1
  50   30   31 1
  51   30   34 1
  52   31   32 2
  53   31   50 1
  54   32   33 1
  55   32   51 1
  56   33   34 2
  57   33   52 1

#	End of record

