#	Name: ASD01884607
#	Creating user name:	WinNT
#	Creation time:	15. 06. 2019 19:48

#	Modifying user name:	WinNT
#	Modification time:	15. 06. 2019 19:48

#	Program:	/corina/corina34_cracker 3.40 0067  02.08.2006

@<TRIPOS>MOLECULE
ASD01884607
  35   37    0    0    0
SMALL
NO_CHARGES


@<TRIPOS>ATOM
   1 C1            -0.0164     1.3575     0.0095 C.2     
   2 C2             0.0021    -0.0041     0.0020 C.2     
   3 C3             1.2441    -0.6750    -0.0134 C.2     
   4 C4             2.4025     0.0467    -0.0206 C.2     
   5 N5             2.3701     1.4022    -0.0130 N.am    
   6 C6             1.1988     2.0651     0.0017 C.2     
   7 O7             1.1913     3.2854     0.0079 O.2     
   8 C8             3.6267     2.1552    -0.0205 C.3     
   9 C9             1.2900    -2.1582    -0.0214 C.ar    
  10 C10            4.0446     2.4211    -1.4438 C.ar    
  11 C11            3.4604     3.4556    -2.1548 C.ar    
  12 C12            3.8448     3.6999    -3.4621 C.ar    
  13 C13            4.8128     2.9095    -4.0568 C.ar    
  14 C14            5.3957     1.8752    -3.3437 C.ar    
  15 C15            5.0150     1.6356    -2.0371 C.ar    
  16 F16            5.1885     3.1465    -5.3327 F       
  17 F17            2.5153     4.2261    -1.5731 F       
  18 C18            0.8131    -2.8784     1.0721 C.ar    
  19 C19            0.8577    -4.2578     1.0592 C.ar    
  20 C20            1.3746    -4.9253    -0.0365 C.ar    
  21 C21            1.8498    -4.2154    -1.1245 C.ar    
  22 C22            1.8048    -2.8360    -1.1247 C.ar    
  23 H23           -0.9563     1.8894     0.0168 H       
  24 H24           -0.9217    -0.5636     0.0082 H       
  25 H25            3.3529    -0.4662    -0.0321 H       
  26 H26            3.4856     3.1026     0.4997 H       
  27 H27            4.4005     1.5758     0.4831 H       
  28 H28            3.3894     4.5064    -4.0175 H       
  29 H29            6.1511     1.2583    -3.8077 H       
  30 H30            5.4702     0.8289    -1.4818 H       
  31 H31            0.4096    -2.3581     1.9282 H       
  32 H32            0.4887    -4.8169     1.9063 H       
  33 H33            1.4077    -6.0048    -0.0424 H       
  34 H34            2.2527    -4.7417    -1.9772 H       
  35 H35            2.1757    -2.2827    -1.9748 H       
@<TRIPOS>BOND
   1    1    2 2
   2    1    6 1
   3    1   23 1
   4    2    3 1
   5    2   24 1
   6    3    4 2
   7    3    9 1
   8    4    5 1
   9    4   25 1
  10    5    6 am
  11    5    8 1
  12    6    7 2
  13    8   10 1
  14    8   26 1
  15    8   27 1
  16    9   18 ar
  17    9   22 ar
  18   10   11 ar
  19   10   15 ar
  20   11   12 ar
  21   11   17 1
  22   12   13 ar
  23   12   28 1
  24   13   14 ar
  25   13   16 1
  26   14   15 ar
  27   14   29 1
  28   15   30 1
  29   18   19 ar
  30   18   31 1
  31   19   20 ar
  32   19   32 1
  33   20   21 ar
  34   20   33 1
  35   21   22 ar
  36   21   34 1
  37   22   35 1

#	End of record

