#	Name: ASD07931906
#	Creating user name:	WinNT
#	Creation time:	15. 06. 2019 21:13

#	Modifying user name:	WinNT
#	Modification time:	15. 06. 2019 21:13

#	Program:	/corina/corina34_cracker 3.40 0067  02.08.2006

@<TRIPOS>MOLECULE
ASD07931906
  69   72    0    0    0
SMALL
NO_CHARGES


@<TRIPOS>ATOM
   1 O1             0.5041     2.1518    -2.4612 O.3     
   2 C2             0.6690     0.9567    -3.2428 C.3     
   3 C3             2.0504     1.0396    -3.9207 C.3     
   4 C4             2.6509     2.3670    -3.3970 C.3     
   5 C5             1.8267     2.6096    -2.1070 C.3     
   6 O6             0.6127    -0.1911    -2.3934 O.3     
   7 C7            -0.4138     0.8742    -4.2877 C.ar    
   8 C8            -0.9794     2.0313    -4.7897 C.ar    
   9 C9            -1.9728     1.9557    -5.7481 C.ar    
  10 C10           -2.4001     0.7229    -6.2047 C.ar    
  11 C11           -1.8339    -0.4342    -5.7034 C.ar    
  12 C12           -0.8376    -0.3584    -4.7481 C.ar    
  13 C13           -3.4837     0.6404    -7.2488 C.3     
  14 F14           -2.9056     0.6504    -8.5227 F       
  15 F15           -4.2094    -0.5430    -7.0753 F       
  16 F16           -4.3422     1.7373    -7.1177 F       
  17 C17            1.8983     1.0842    -5.4425 C.3     
  18 C18            1.8049     4.0981    -1.7536 C.3     
  19 O19            1.0501     4.2923    -0.5558 O.3     
  20 Si20           1.0448     5.8318    -0.0173 Si      
  21 C21            0.5035     6.9714    -1.3948 C.ar    
  22 C22           -0.6104     7.7735    -1.2309 C.ar    
  23 C23           -1.0111     8.6168    -2.2503 C.ar    
  24 C24           -0.2975     8.6584    -3.4335 C.ar    
  25 C25            0.8169     7.8571    -3.5971 C.ar    
  26 C26            1.2201     7.0169    -2.5761 C.ar    
  27 C27           -0.1395     5.9849     1.4191 C.ar    
  28 C28           -1.4925     6.1447     1.1854 C.ar    
  29 C29           -2.3689     6.2580     2.2484 C.ar    
  30 C30           -1.8923     6.2111     3.5451 C.ar    
  31 C31           -0.5394     6.0504     3.7789 C.ar    
  32 C32            0.3365     5.9328     2.7159 C.ar    
  33 C33            2.7598     6.3010     0.5390 C.3     
  34 C34            3.6216     6.6249    -0.6830 C.3     
  35 C35            2.6828     7.5288     1.4487 C.3     
  36 C36            3.3834     5.1347     1.3083 C.3     
  37 H37            2.6727     0.1957    -3.6231 H       
  38 H38            3.7098     2.2504    -3.1660 H       
  39 H39            2.4972     3.1732    -4.1143 H       
  40 H40            2.2271     2.0235    -1.2798 H       
  41 H41           -0.2284    -0.2950    -1.9278 H       
  42 H42           -0.6455     2.9945    -4.4329 H       
  43 H43           -2.4151     2.8597    -6.1398 H       
  44 H44           -2.1681    -1.3973    -6.0599 H       
  45 H45           -0.3926    -1.2623    -4.3591 H       
  46 H46            1.3127     1.9595    -5.7236 H       
  47 H47            2.8838     1.1427    -5.9045 H       
  48 H48            1.3901     0.1822    -5.7834 H       
  49 H49            2.8251     4.4504    -1.6013 H       
  50 H50            1.3449     4.6581    -2.5678 H       
  51 H51           -1.1679     7.7409    -0.3064 H       
  52 H52           -1.8817     9.2429    -2.1224 H       
  53 H53           -0.6109     9.3168    -4.2302 H       
  54 H54            1.3742     7.8894    -4.5217 H       
  55 H55            2.0929     6.3936    -2.7025 H       
  56 H56           -1.8649     6.1813     0.1723 H       
  57 H57           -3.4260     6.3836     2.0657 H       
  58 H58           -2.5770     6.3004     4.3756 H       
  59 H59           -0.1670     6.0142     4.7920 H       
  60 H60            1.3930     5.8035     2.8986 H       
  61 H61            3.1297     7.3916    -1.2816 H       
  62 H62            4.5951     6.9892    -0.3547 H       
  63 H63            3.7540     5.7247    -1.2831 H       
  64 H64            2.1632     7.2662     2.3702 H       
  65 H65            3.6907     7.8701     1.6845 H       
  66 H66            2.1395     8.3248     0.9394 H       
  67 H67            3.5241     4.2892     0.6349 H       
  68 H68            4.3478     5.4409     1.7134 H       
  69 H69            2.7224     4.8430     2.1245 H       
@<TRIPOS>BOND
   1    1    2 1
   2    1    5 1
   3    2    6 1
   4    2    7 1
   5    2    3 1
   6    3    4 1
   7    3   17 1
   8    3   37 1
   9    4    5 1
  10    4   38 1
  11    4   39 1
  12    5   18 1
  13    5   40 1
  14    6   41 1
  15    7    8 ar
  16    7   12 ar
  17    8    9 ar
  18    8   42 1
  19    9   10 ar
  20    9   43 1
  21   10   11 ar
  22   10   13 1
  23   11   12 ar
  24   11   44 1
  25   12   45 1
  26   13   14 1
  27   13   15 1
  28   13   16 1
  29   17   46 1
  30   17   47 1
  31   17   48 1
  32   18   19 1
  33   18   49 1
  34   18   50 1
  35   19   20 1
  36   20   21 1
  37   20   27 1
  38   20   33 1
  39   21   22 ar
  40   21   26 ar
  41   22   23 ar
  42   22   51 1
  43   23   24 ar
  44   23   52 1
  45   24   25 ar
  46   24   53 1
  47   25   26 ar
  48   25   54 1
  49   26   55 1
  50   27   28 ar
  51   27   32 ar
  52   28   29 ar
  53   28   56 1
  54   29   30 ar
  55   29   57 1
  56   30   31 ar
  57   30   58 1
  58   31   32 ar
  59   31   59 1
  60   32   60 1
  61   33   34 1
  62   33   36 1
  63   33   35 1
  64   34   61 1
  65   34   62 1
  66   34   63 1
  67   35   64 1
  68   35   65 1
  69   35   66 1
  70   36   67 1
  71   36   68 1
  72   36   69 1

#	End of record

