#	Name: ASD01914041
#	Creating user name:	WinNT
#	Creation time:	15. 06. 2019 20:02

#	Modifying user name:	WinNT
#	Modification time:	15. 06. 2019 20:02

#	Program:	/corina/corina34_cracker 3.40 0067  02.08.2006

@<TRIPOS>MOLECULE
ASD01914041
  42   43    0    0    0
SMALL
NO_CHARGES


@<TRIPOS>ATOM
   1 C1            -0.0167     1.3779     0.0096 C.ar    
   2 C2             0.0021    -0.0041     0.0020 C.ar    
   3 C3             1.2099    -0.6820    -0.0132 C.ar    
   4 C4             2.3810     1.4110    -0.0131 C.ar    
   5 C5             1.1694     2.0866     0.0021 C.ar    
   6 O6             3.5481     2.1071    -0.0210 O.3     
   7 C7             4.7574     1.3459    -0.0367 C.3     
   8 C8             5.9394     2.2807    -0.0434 C.ar    
   9 C9             5.7259     3.6472    -0.0344 C.ar    
  10 C10            6.8137     4.5028    -0.0402 C.ar    
  11 C11            8.0971     3.9441    -0.0551 C.ar    
  12 C12            8.2273     2.5546    -0.0635 C.ar    
  13 N13            7.1611     1.7821    -0.0524 N.ar    
  14 C14            9.2945     4.8113    -0.0624 C.2     
  15 N15           10.5248     4.2612    -0.0768 N.am    
  16 O16            9.1693     6.0203    -0.0554 O.2     
  17 C17            2.3995     0.0240    -0.0208 C.ar    
  18 C18           11.7113     5.1206    -0.0839 C.3     
  19 F19            1.2262    -2.0329    -0.0202 F       
  20 C20           12.0643     5.5147     1.3517 C.3     
  21 C21           12.8853     4.3639    -0.7084 C.3     
  22 O22           13.2294     3.2512     0.1197 O.3     
  23 C23           14.3207     2.4732    -0.3761 C.3     
  24 H24           -0.9596     1.9044     0.0169 H       
  25 H25           -0.9262    -0.5561     0.0083 H       
  26 H26            1.1533     3.1665     0.0084 H       
  27 H27            4.7998     0.7130     0.8498 H       
  28 H28            4.7825     0.7220    -0.9301 H       
  29 H29            4.7209     4.0424    -0.0233 H       
  30 H30            6.6760     5.5740    -0.0338 H       
  31 H31            9.2111     2.1091    -0.0750 H       
  32 H32           10.6247     3.2964    -0.0823 H       
  33 H33            3.3416    -0.5040    -0.0323 H       
  34 H34           11.5062     6.0183    -0.6672 H       
  35 H35           12.9470     6.1541     1.3463 H       
  36 H36           11.2279     6.0538     1.7965 H       
  37 H37           12.2694     4.6170     1.9349 H       
  38 H38           12.6017     4.0061    -1.6982 H       
  39 H39           13.7428     5.0311    -0.7951 H       
  40 H40           14.5196     1.6486     0.3085 H       
  41 H41           14.0669     2.0763    -1.3590 H       
  42 H42           15.2079     3.1013    -0.4559 H       
@<TRIPOS>BOND
   1    1    2 ar
   2    1    5 ar
   3    1   24 1
   4    2    3 ar
   5    2   25 1
   6    3   17 ar
   7    3   19 1
   8    4    5 ar
   9    4    6 1
  10    4   17 ar
  11    5   26 1
  12    6    7 1
  13    7    8 1
  14    7   27 1
  15    7   28 1
  16    8    9 ar
  17    8   13 ar
  18    9   10 ar
  19    9   29 1
  20   10   11 ar
  21   10   30 1
  22   11   12 ar
  23   11   14 1
  24   12   13 ar
  25   12   31 1
  26   14   15 am
  27   14   16 2
  28   15   18 1
  29   15   32 1
  30   17   33 1
  31   18   20 1
  32   18   21 1
  33   18   34 1
  34   20   35 1
  35   20   36 1
  36   20   37 1
  37   21   22 1
  38   21   38 1
  39   21   39 1
  40   22   23 1
  41   23   40 1
  42   23   41 1
  43   23   42 1

#	End of record

