#	Name: ASD01912841
#	Creating user name:	WinNT
#	Creation time:	15. 06. 2019 20:00

#	Modifying user name:	WinNT
#	Modification time:	15. 06. 2019 20:00

#	Program:	/corina/corina34_cracker 3.40 0067  02.08.2006

@<TRIPOS>MOLECULE
ASD01912841
  46   49    0    0    0
SMALL
NO_CHARGES


@<TRIPOS>ATOM
   1 C1            -0.0188     1.3592     0.1431 C.2     
   2 N2             0.0023    -0.0034    -0.0078 N.pl3   
   3 C3            -1.1997    -0.6835    -0.1370 C.2     
   4 C4            -2.3604    -0.0416    -0.1171 C.2     
   5 N5            -2.4358     1.3308     0.0325 N.am    
   6 C6            -1.3046     2.0583     0.1691 C.2     
   7 C7             1.2972     1.7694     0.2472 C.2     
   8 C8             2.0522     0.6016     0.1507 C.2     
   9 N9             1.2242    -0.4052     0.0018 N.2     
  10 O10           -1.3538     3.2678     0.3017 O.2     
  11 C11           -3.6793     1.9642     0.0473 C.ar    
  12 C12            3.5554     0.5114     0.2068 C.3     
  13 O13            4.1051     1.8196     0.3762 O.3     
  14 C14            5.4589     1.9156     0.4463 C.ar    
  15 C15            6.0599     3.1552     0.6103 C.ar    
  16 C16            7.4363     3.2502     0.6813 C.ar    
  17 C17            8.2147     2.1112     0.5890 C.ar    
  18 C18            7.6181     0.8747     0.4250 C.ar    
  19 C19            6.2419     0.7737     0.3597 C.ar    
  20 N20           -4.2959     2.1710     1.2013 N.ar    
  21 C21           -4.2556     2.3768    -1.1487 C.ar    
  22 C22           -5.4922     3.0056    -1.1234 C.ar    
  23 C23           -6.1109     3.2004     0.1004 C.ar    
  24 C24           -5.4762     2.7681     1.2592 C.ar    
  25 F25           -3.6188     2.1683    -2.3219 F       
  26 N26           -6.0906     2.9598     2.4927 N.pl3   
  27 C27           -7.4453     3.5137     2.5581 C.3     
  28 C28           -5.3828     2.6077     3.7261 C.3     
  29 H29           -1.1903    -1.7568    -0.2565 H       
  30 H30           -3.2740    -0.6081    -0.2211 H       
  31 H31            1.6619     2.7778     0.3752 H       
  32 H32            3.8506    -0.1182     1.0461 H       
  33 H33            3.9283     0.0781    -0.7213 H       
  34 H34            5.4523     4.0452     0.6821 H       
  35 H35            7.9047     4.2150     0.8086 H       
  36 H36            9.2905     2.1875     0.6447 H       
  37 H37            8.2283    -0.0134     0.3524 H       
  38 H38            5.7763    -0.1924     0.2316 H       
  39 H39           -5.9618     3.3363    -2.0380 H       
  40 H40           -7.0738     3.6867     0.1541 H       
  41 H41           -8.1717     2.7016     2.5273 H       
  42 H42           -7.5647     4.0731     3.4859 H       
  43 H43           -7.6073     4.1785     1.7096 H       
  44 H44           -4.3967     2.2143     3.4795 H       
  45 H45           -5.2745     3.4956     4.3489 H       
  46 H46           -5.9508     1.8512     4.2676 H       
@<TRIPOS>BOND
   1    1    2 1
   2    1    7 2
   3    1    6 1
   4    2    3 1
   5    2    9 1
   6    3    4 2
   7    3   29 1
   8    4    5 1
   9    4   30 1
  10    5    6 am
  11    5   11 1
  12    6   10 2
  13    7    8 1
  14    7   31 1
  15    8    9 2
  16    8   12 1
  17   11   20 ar
  18   11   21 ar
  19   12   13 1
  20   12   32 1
  21   12   33 1
  22   13   14 1
  23   14   15 ar
  24   14   19 ar
  25   15   16 ar
  26   15   34 1
  27   16   17 ar
  28   16   35 1
  29   17   18 ar
  30   17   36 1
  31   18   19 ar
  32   18   37 1
  33   19   38 1
  34   20   24 ar
  35   21   22 ar
  36   21   25 1
  37   22   23 ar
  38   22   39 1
  39   23   24 ar
  40   23   40 1
  41   24   26 1
  42   26   27 1
  43   26   28 1
  44   27   41 1
  45   27   42 1
  46   27   43 1
  47   28   44 1
  48   28   45 1
  49   28   46 1

#	End of record

