#	Name: ASD03430547
#	Creating user name:	WinNT
#	Creation time:	15. 06. 2019 20:41

#	Modifying user name:	WinNT
#	Modification time:	15. 06. 2019 20:41

#	Program:	/corina/corina34_cracker 3.40 0067  02.08.2006

@<TRIPOS>MOLECULE
ASD03430547
  31   33    0    0    0
SMALL
NO_CHARGES


@<TRIPOS>ATOM
   1 N1            -0.0267     1.3302     0.0052 N.am    
   2 C2             1.2218     1.8280    -0.0153 C.2     
   3 C3             2.1709     0.6665    -0.0164 C.2     
   4 C4             1.3057    -0.5275     0.0058 C.ar    
   5 C5             1.5723    -1.8965     0.0153 C.ar    
   6 C6             0.5264    -2.7966     0.0370 C.ar    
   7 C7            -0.7814    -2.3407     0.0488 C.ar    
   8 C8            -1.0566    -0.9861     0.0391 C.ar    
   9 C9            -0.0194    -0.0627     0.0182 C.ar    
  10 O10            1.5256     3.0023    -0.0305 O.2     
  11 O11            3.3838     0.7016    -0.0327 O.2     
  12 C12           -1.2413     2.1492     0.0185 C.3     
  13 C13           -1.7194     2.3157     1.4380 C.ar    
  14 C14           -1.7279     3.5727     2.0129 C.ar    
  15 C15           -2.1700     3.7151     3.3191 C.ar    
  16 C16           -2.5889     2.5827     4.0012 C.ar    
  17 C17           -2.5521     1.3588     3.3609 C.ar    
  18 N18           -2.1298     1.2615     2.1152 N.ar    
  19 C19           -1.2620     4.7731     1.2299 C.3     
  20 F20           -1.4747     5.9325     1.9833 F       
  21 F21            0.1021     4.6445     0.9470 F       
  22 F22           -1.9808     4.8565     0.0326 F       
  23 H23            2.5925    -2.2506     0.0053 H       
  24 H24            0.7279    -3.8576     0.0444 H       
  25 H25           -1.5947    -3.0510     0.0654 H       
  26 H26           -2.0812    -0.6449     0.0482 H       
  27 H27           -1.0242     3.1281    -0.4089 H       
  28 H28           -2.0164     1.6592    -0.5708 H       
  29 H29           -2.1874     4.6848     3.7942 H       
  30 H30           -2.9392     2.6565     5.0201 H       
  31 H31           -2.8766     0.4721     3.8852 H       
@<TRIPOS>BOND
   1    1    2 am
   2    1    9 1
   3    1   12 1
   4    2    3 1
   5    2   10 2
   6    3    4 1
   7    3   11 2
   8    4    5 ar
   9    4    9 ar
  10    5    6 ar
  11    5   23 1
  12    6    7 ar
  13    6   24 1
  14    7    8 ar
  15    7   25 1
  16    8    9 ar
  17    8   26 1
  18   12   13 1
  19   12   27 1
  20   12   28 1
  21   13   14 ar
  22   13   18 ar
  23   14   15 ar
  24   14   19 1
  25   15   16 ar
  26   15   29 1
  27   16   17 ar
  28   16   30 1
  29   17   18 ar
  30   17   31 1
  31   19   20 1
  32   19   21 1
  33   19   22 1

#	End of record

