#	Name: ASD01800018
#	Creating user name:	WinNT
#	Creation time:	15. 06. 2019 19:23

#	Modifying user name:	WinNT
#	Modification time:	15. 06. 2019 19:23

#	Program:	/corina/corina34_cracker 3.40 0067  02.08.2006

@<TRIPOS>MOLECULE
ASD01800018
  50   53    0    0    0
SMALL
NO_CHARGES


@<TRIPOS>ATOM
   1 C1            -0.2530     0.8534     0.3095 C.ar    
   2 C2             0.0006    -0.4888     0.5750 C.ar    
   3 C3             1.2963    -0.9879     0.4580 C.ar    
   4 C4             2.3318    -0.1491     0.0781 C.ar    
   5 C5             2.0823     1.1883    -0.1871 C.ar    
   6 C6             0.7891     1.6932    -0.0724 C.ar    
   7 O7             3.5950    -0.6388    -0.0343 O.3     
   8 C8             3.8704    -1.3747    -1.1281 C.2     
   9 N9             5.0698    -1.9769    -1.2507 N.am    
  10 C10            5.3694    -2.7774    -2.4405 C.3     
  11 C11            6.8899    -2.8314    -2.6704 C.3     
  12 C12            7.2952    -4.3177    -2.5908 C.3     
  13 C13            5.9926    -5.0852    -2.9271 C.3     
  14 C14            4.9038    -4.2329    -2.2291 C.3     
  15 O15            3.0374    -1.4957    -2.0045 O.2     
  16 C16           -1.1076    -1.3876     0.9829 C.ar    
  17 C17           -0.8553    -2.7318     1.2492 C.ar    
  18 C18           -1.8891    -3.5636     1.6282 C.ar    
  19 C19           -3.1753    -3.0646     1.7435 C.ar    
  20 C20           -3.4310    -1.7299     1.4795 C.ar    
  21 C21           -2.4027    -0.8887     1.1064 C.ar    
  22 C22            0.5229     3.1254    -0.3560 C.ar    
  23 C23            1.5649     3.9680    -0.7375 C.ar    
  24 C24            1.3118     5.2992    -1.0001 C.ar    
  25 C25            0.0265     5.7971    -0.8851 C.ar    
  26 C26           -1.0117     4.9652    -0.5063 C.ar    
  27 C27           -0.7708     3.6310    -0.2473 C.ar    
  28 Cl28          -4.4718    -4.1162     2.2200 Cl      
  29 H29           -1.2572     1.2415     0.3952 H       
  30 H30            1.4938    -2.0295     0.6640 H       
  31 H31            2.8914     1.8397    -0.4830 H       
  32 H32            5.7348    -1.8803    -0.5511 H       
  33 H33            4.8749    -2.3493    -3.3124 H       
  34 H34            7.1332    -2.4302    -3.6543 H       
  35 H35            7.4050    -2.2619    -1.8967 H       
  36 H36            8.0701    -4.5416    -3.3239 H       
  37 H37            7.6361    -4.5668    -1.5859 H       
  38 H38            5.8287    -5.1144    -4.0043 H       
  39 H39            6.0196    -6.0927    -2.5120 H       
  40 H40            4.8584    -4.4683    -1.1658 H       
  41 H41            3.9334    -4.3950    -2.6984 H       
  42 H42            0.1476    -3.1221     1.1589 H       
  43 H43           -1.6946    -4.6057     1.8348 H       
  44 H44           -4.4362    -1.3454     1.5701 H       
  45 H45           -2.6032     0.1524     0.9007 H       
  46 H46            2.5690     3.5803    -0.8273 H       
  47 H47            2.1188     5.9532    -1.2956 H       
  48 H48           -0.1672     6.8394    -1.0915 H       
  49 H49           -2.0132     5.3593    -0.4174 H       
  50 H50           -1.5821     2.9823     0.0484 H       
@<TRIPOS>BOND
   1    1    2 ar
   2    1    6 ar
   3    1   29 1
   4    2    3 ar
   5    2   16 1
   6    3    4 ar
   7    3   30 1
   8    4    5 ar
   9    4    7 1
  10    5    6 ar
  11    5   31 1
  12    6   22 1
  13    7    8 1
  14    8    9 am
  15    8   15 2
  16    9   10 1
  17    9   32 1
  18   10   11 1
  19   10   14 1
  20   10   33 1
  21   11   12 1
  22   11   34 1
  23   11   35 1
  24   12   13 1
  25   12   36 1
  26   12   37 1
  27   13   14 1
  28   13   38 1
  29   13   39 1
  30   14   40 1
  31   14   41 1
  32   16   17 ar
  33   16   21 ar
  34   17   18 ar
  35   17   42 1
  36   18   19 ar
  37   18   43 1
  38   19   20 ar
  39   19   28 1
  40   20   21 ar
  41   20   44 1
  42   21   45 1
  43   22   23 ar
  44   22   27 ar
  45   23   24 ar
  46   23   46 1
  47   24   25 ar
  48   24   47 1
  49   25   26 ar
  50   25   48 1
  51   26   27 ar
  52   26   49 1
  53   27   50 1

#	End of record

