#	Name: ASD01884847
#	Creating user name:	WinNT
#	Creation time:	15. 06. 2019 19:49

#	Modifying user name:	WinNT
#	Modification time:	15. 06. 2019 19:49

#	Program:	/corina/corina34_cracker 3.40 0067  02.08.2006

@<TRIPOS>MOLECULE
ASD01884847
  58   61    0    0    0
SMALL
NO_CHARGES


@<TRIPOS>ATOM
   1 C1            -0.0002     1.3042     0.3266 C.2     
   2 C2            -1.2224     1.9970     0.3659 C.2     
   3 C3            -2.3658     1.3853    -0.0079 C.2     
   4 N4            -2.3513     0.0881    -0.4289 N.pl3   
   5 C5            -1.1724    -0.6145    -0.4786 C.2     
   6 C6             0.0296     0.0118    -0.0966 C.2     
   7 C7            -3.3154    -0.7714    -0.8568 C.2     
   8 N8            -2.7323    -1.9078    -1.1390 N.2     
   9 N9            -1.4670    -1.8267    -0.9194 N.2     
  10 C10           -4.7865    -0.4695    -0.9821 C.3     
  11 C11            1.2732     1.9924     0.7458 C.3     
  12 N12            1.4373     1.8748     2.2008 N.3     
  13 C13            2.8150     2.1869     2.6020 C.3     
  14 C14            2.9862     1.9142     4.0981 C.3     
  15 C15            1.9974     2.7779     4.8859 C.3     
  16 C16            0.5736     2.4684     4.4150 C.3     
  17 C17            0.4723     2.7250     2.9097 C.3     
  18 C18            2.1197     2.4700     6.3560 C.ar    
  19 C19            1.5656     3.3255     7.2898 C.ar    
  20 C20            1.6779     3.0430     8.6383 C.ar    
  21 C21            2.3438     1.9048     9.0530 C.ar    
  22 C22            2.8971     1.0489     8.1192 C.ar    
  23 C23            2.7811     1.3291     6.7705 C.ar    
  24 O24           -5.0585     0.0402    -2.2891 O.3     
  25 F25            2.2791     4.1304     4.6653 F       
  26 C26           -6.4330     0.3603    -2.5138 C.3     
  27 C27           -6.6885     1.8164    -2.1195 C.3     
  28 C28           -6.7662     0.1668    -3.9944 C.3     
  29 C29            1.3323    -0.7443    -0.1455 C.3     
  30 F30            1.7514    -1.0358     1.1571 F       
  31 F31            1.1531    -1.9364    -0.8554 F       
  32 F32            2.3015     0.0372    -0.7833 F       
  33 H33           -1.2468     3.0246     0.6975 H       
  34 H34           -3.2995     1.9269     0.0270 H       
  35 H35           -5.3598    -1.3826    -0.8217 H       
  36 H36           -5.0699     0.2731    -0.2363 H       
  37 H37            2.1209     1.5242     0.2455 H       
  38 H38            1.2248     3.0457     0.4696 H       
  39 H39            3.5078     1.5629     2.0375 H       
  40 H40            3.0236     3.2371     2.3981 H       
  41 H41            2.7912     0.8610     4.3007 H       
  42 H42            4.0045     2.1607     4.3987 H       
  43 H43            0.3407     1.4240     4.6225 H       
  44 H44           -0.1318     3.1108     4.9420 H       
  45 H45            0.6919     3.7727     2.7043 H       
  46 H46           -0.5363     2.4919     2.5686 H       
  47 H47            1.0453     4.2147     6.9658 H       
  48 H48            1.2456     3.7118     9.3679 H       
  49 H49            2.4321     1.6845    10.1066 H       
  50 H50            3.4176     0.1598     8.4431 H       
  51 H51            3.2133     0.6603     6.0409 H       
  52 H52           -7.0618    -0.2950    -1.9111 H       
  53 H53           -6.0597     2.4717    -2.7221 H       
  54 H54           -7.7369     2.0605    -2.2909 H       
  55 H55           -6.4511     1.9542    -1.0647 H       
  56 H56           -6.5842    -0.8705    -4.2753 H       
  57 H57           -7.8146     0.4110    -4.1658 H       
  58 H58           -6.1374     0.8222    -4.5971 H       
@<TRIPOS>BOND
   1    1    2 1
   2    1   11 1
   3    1    6 2
   4    2    3 2
   5    2   33 1
   6    3    4 1
   7    3   34 1
   8    4    5 1
   9    4    7 1
  10    5    6 1
  11    5    9 2
  12    6   29 1
  13    7    8 2
  14    7   10 1
  15    8    9 1
  16   10   24 1
  17   10   35 1
  18   10   36 1
  19   11   12 1
  20   11   37 1
  21   11   38 1
  22   12   13 1
  23   12   17 1
  24   13   14 1
  25   13   39 1
  26   13   40 1
  27   14   15 1
  28   14   41 1
  29   14   42 1
  30   15   16 1
  31   15   18 1
  32   15   25 1
  33   16   17 1
  34   16   43 1
  35   16   44 1
  36   17   45 1
  37   17   46 1
  38   18   19 ar
  39   18   23 ar
  40   19   20 ar
  41   19   47 1
  42   20   21 ar
  43   20   48 1
  44   21   22 ar
  45   21   49 1
  46   22   23 ar
  47   22   50 1
  48   23   51 1
  49   24   26 1
  50   26   27 1
  51   26   28 1
  52   26   52 1
  53   27   53 1
  54   27   54 1
  55   27   55 1
  56   28   56 1
  57   28   57 1
  58   28   58 1
  59   29   30 1
  60   29   31 1
  61   29   32 1

#	End of record

