#	Name: ASD01410407
#	Creating user name:	WinNT
#	Creation time:	15. 06. 2019 19:17

#	Modifying user name:	WinNT
#	Modification time:	15. 06. 2019 19:17

#	Program:	/corina/corina34_cracker 3.40 0067  02.08.2006

@<TRIPOS>MOLECULE
ASD01410407
  39   41    0    0    0
SMALL
NO_CHARGES


@<TRIPOS>ATOM
   1 S1            -0.0148     1.7573    -0.0946 S.3     
   2 C2            -0.0019     0.0037     0.1611 C.2     
   3 N3             1.2729    -0.3521     0.3565 N.am    
   4 C4             2.2191     0.5716     0.3292 C.2     
   5 C5             1.7424     1.9385     0.0772 C.2     
   6 S6            -1.3616    -1.0367     0.1592 S.2     
   7 O7             3.3950     0.3094     0.5002 O.2     
   8 N8             1.6031    -1.6937     0.5887 N.am    
   9 S9             1.9578    -2.6915    -0.6844 S.o2    
  10 O10            2.3931    -3.9213    -0.1212 O.2     
  11 O11            0.8650    -2.5937    -1.5874 O.2     
  12 C12            3.3517    -2.0032    -1.5139 C.ar    
  13 C13            4.6304    -2.3691    -1.1370 C.ar    
  14 C14            5.7239    -1.8291    -1.7878 C.ar    
  15 C15            5.5388    -0.9235    -2.8157 C.ar    
  16 C16            4.2601    -0.5583    -3.1932 C.ar    
  17 C17            3.1664    -1.1016    -2.5453 C.ar    
  18 C18            2.4760     3.0761    -0.0057 C.2     
  19 C19           -0.1479     5.7448     0.2235 C.ar    
  20 C20            0.5346     6.8354    -0.2871 C.ar    
  21 C21            0.4761     4.5191     0.3187 C.ar    
  22 C22            1.8029     4.3793    -0.1035 C.ar    
  23 C23            2.4855     5.4867    -0.6189 C.ar    
  24 C24            1.8472     6.7055    -0.7069 C.ar    
  25 C25           -0.1555     8.1714    -0.3874 C.3     
  26 F26            0.0484     8.8915     0.7946 F       
  27 F27            0.3713     8.8884    -1.4670 F       
  28 F28           -1.5267     7.9744    -0.5829 F       
  29 H29            1.6241    -2.0380     1.4953 H       
  30 H30            4.7750    -3.0766    -0.3340 H       
  31 H31            6.7229    -2.1144    -1.4929 H       
  32 H32            6.3931    -0.5011    -3.3236 H       
  33 H33            4.1154     0.1494    -3.9960 H       
  34 H34            2.1674    -0.8191    -2.8427 H       
  35 H35            3.5548     3.0246     0.0001 H       
  36 H36           -1.1705     5.8554     0.5528 H       
  37 H37           -0.0577     3.6692     0.7176 H       
  38 H38            3.5098     5.3870    -0.9466 H       
  39 H39            2.3726     7.5612    -1.1044 H       
@<TRIPOS>BOND
   1    1    2 1
   2    1    5 1
   3    2    3 am
   4    2    6 2
   5    3    4 am
   6    3    8 1
   7    4    5 1
   8    4    7 2
   9    5   18 2
  10    8    9 am
  11    8   29 1
  12    9   10 2
  13    9   11 2
  14    9   12 1
  15   12   13 ar
  16   12   17 ar
  17   13   14 ar
  18   13   30 1
  19   14   15 ar
  20   14   31 1
  21   15   16 ar
  22   15   32 1
  23   16   17 ar
  24   16   33 1
  25   17   34 1
  26   18   22 1
  27   18   35 1
  28   19   20 ar
  29   19   21 ar
  30   19   36 1
  31   20   24 ar
  32   20   25 1
  33   21   22 ar
  34   21   37 1
  35   22   23 ar
  36   23   24 ar
  37   23   38 1
  38   24   39 1
  39   25   26 1
  40   25   27 1
  41   25   28 1

#	End of record

