#	Name: ASD06770016
#	Creating user name:	WinNT
#	Creation time:	15. 06. 2019 21:08

#	Modifying user name:	WinNT
#	Modification time:	15. 06. 2019 21:08

#	Program:	/corina/corina34_cracker 3.40 0067  02.08.2006

@<TRIPOS>MOLECULE
ASD06770016
  35   36    0    0    0
SMALL
NO_CHARGES


@<TRIPOS>ATOM
   1 C1             0.0040     1.2231    -0.2369 C.3     
   2 C2            -0.1487    -0.2467     0.1595 C.3     
   3 C3             0.6473    -0.5154     1.4383 C.3     
   4 C4             2.1252    -0.2038     1.1940 C.3     
   5 C5             2.2778     1.2660     0.7976 C.3     
   6 C6             1.4819     1.5346    -0.4812 C.3     
   7 C7            -0.7800     1.4877    -1.4964 C.2     
   8 O8            -1.3998     0.5891    -2.0250 O.2     
   9 N9            -0.7924     2.7229    -2.0355 N.am    
  10 N10           -1.5030     2.9627    -3.1772 N.3     
  11 O11            2.8686    -0.4547     2.3884 O.3     
  12 C12            4.1892    -0.7412     2.2444 C.ar    
  13 C13            4.9457    -1.1054     3.3488 C.ar    
  14 C14            6.2879    -1.3961     3.1998 C.ar    
  15 C15            6.8776    -1.3243     1.9513 C.ar    
  16 C16            6.1260    -0.9611     0.8490 C.ar    
  17 C17            4.7819    -0.6754     0.9918 C.ar    
  18 H18           -0.3731     1.8569     0.5657 H       
  19 H19           -1.2015    -0.4687     0.3336 H       
  20 H20            0.2284    -0.8806    -0.6430 H       
  21 H21            0.2702     0.1185     2.2409 H       
  22 H22            0.5386    -1.5625     1.7207 H       
  23 H23            2.5023    -0.8376     0.3915 H       
  24 H24            1.9007     1.8999     1.6002 H       
  25 H25            3.3307     1.4880     0.6236 H       
  26 H26            1.8590     0.9008    -1.2837 H       
  27 H27            1.5906     2.5818    -0.7636 H       
  28 H28           -0.2967     3.4415    -1.6128 H       
  29 H29           -1.4182     3.9275    -3.4600 H       
  30 H30           -1.2159     2.3419    -3.9190 H       
  31 H31            4.4856    -1.1613     4.3244 H       
  32 H32            6.8773    -1.6794     4.0594 H       
  33 H33            7.9271    -1.5519     1.8368 H       
  34 H34            6.5890    -0.9050    -0.1250 H       
  35 H35            4.1942    -0.3965     0.1297 H       
@<TRIPOS>BOND
   1    1    2 1
   2    1    6 1
   3    1    7 1
   4    1   18 1
   5    2    3 1
   6    2   19 1
   7    2   20 1
   8    3    4 1
   9    3   21 1
  10    3   22 1
  11    4    5 1
  12    4   11 1
  13    4   23 1
  14    5    6 1
  15    5   24 1
  16    5   25 1
  17    6   26 1
  18    6   27 1
  19    7    8 2
  20    7    9 am
  21    9   10 1
  22    9   28 1
  23   10   29 1
  24   10   30 1
  25   11   12 1
  26   12   13 ar
  27   12   17 ar
  28   13   14 ar
  29   13   31 1
  30   14   15 ar
  31   14   32 1
  32   15   16 ar
  33   15   33 1
  34   16   17 ar
  35   16   34 1
  36   17   35 1

#	End of record

