#	Name: ASD02038669
#	Creating user name:	WinNT
#	Creation time:	15. 06. 2019 20:17

#	Modifying user name:	WinNT
#	Modification time:	15. 06. 2019 20:17

#	Program:	/corina/corina34_cracker 3.40 0067  02.08.2006

@<TRIPOS>MOLECULE
ASD02038669
  42   43    0    0    0
SMALL
NO_CHARGES


@<TRIPOS>ATOM
   1 C1             0.2131     1.4182    -0.0012 C.ar    
   2 C2             0.1455     0.0385    -0.0183 C.ar    
   3 C3             1.3059    -0.7122     0.0219 C.ar    
   4 C4             1.2293    -2.2172     0.0026 C.3     
   5 C5             1.2633    -2.7110    -1.4451 C.3     
   6 C6             1.1867    -4.2159    -1.4645 C.2     
   7 N7             1.2010    -4.8764    -2.6392 N.am    
   8 N8             1.1297    -6.2754    -2.6572 N.am    
   9 C9             1.1440    -6.9359    -3.8320 C.2     
  10 C10            0.5055    -8.0268    -6.4585 C.ar    
  11 C11            0.6087    -8.7028    -7.6581 C.ar    
  12 C12            1.5309    -8.2965    -8.6054 C.ar    
  13 C13            2.3525    -7.2131    -8.3546 C.ar    
  14 C14            2.2540    -6.5323    -7.1568 C.ar    
  15 C15            1.3291    -6.9377    -6.2036 C.ar    
  16 C16            1.4466     2.0504     0.0565 C.ar    
  17 C17            2.6095     1.2949     0.0968 C.ar    
  18 C18            2.5365    -0.0845     0.0794 C.ar    
  19 O19            1.5158     3.4075     0.0730 O.3     
  20 N20            1.2268    -6.2504    -4.9895 N.am    
  21 S21            1.0569    -8.6455    -3.8540 S.2     
  22 F22            3.2686    -7.6099   -10.5080 F       
  23 F23            3.0869    -5.4553    -9.7705 F       
  24 C24            3.3562    -6.7742    -9.3895 C.3     
  25 F25            4.6451    -6.8499    -8.8506 F       
  26 O26            1.1122    -4.8328    -0.4229 O.2     
  27 H27           -0.6934     2.0042    -0.0371 H       
  28 H28           -0.8145    -0.4542    -0.0628 H       
  29 H29            2.0775    -2.6312     0.5477 H       
  30 H30            0.3014    -2.5398     0.4748 H       
  31 H31            0.4151    -2.2970    -1.9903 H       
  32 H32            2.1912    -2.3883    -1.9174 H       
  33 H33            1.2605    -4.3830    -3.4723 H       
  34 H34            1.0701    -6.7688    -1.8242 H       
  35 H35           -0.2179    -8.3418    -5.7209 H       
  36 H36           -0.0312    -9.5498    -7.8568 H       
  37 H37            1.6096    -8.8269    -9.5429 H       
  38 H38            2.8965    -5.6866    -6.9612 H       
  39 H39            3.5710     1.7847     0.1413 H       
  40 H40            3.4415    -0.6731     0.1107 H       
  41 H41            1.4991     3.7914     0.9604 H       
  42 H42            1.2154    -5.2805    -4.9806 H       
@<TRIPOS>BOND
   1    1    2 ar
   2    1   16 ar
   3    1   27 1
   4    2    3 ar
   5    2   28 1
   6    3    4 1
   7    3   18 ar
   8    4    5 1
   9    4   29 1
  10    4   30 1
  11    5    6 1
  12    5   31 1
  13    5   32 1
  14    6    7 am
  15    6   26 2
  16    7    8 1
  17    7   33 1
  18    8    9 am
  19    8   34 1
  20    9   20 am
  21    9   21 2
  22   10   11 ar
  23   10   15 ar
  24   10   35 1
  25   11   12 ar
  26   11   36 1
  27   12   13 ar
  28   12   37 1
  29   13   14 ar
  30   13   24 1
  31   14   15 ar
  32   14   38 1
  33   15   20 1
  34   16   17 ar
  35   16   19 1
  36   17   18 ar
  37   17   39 1
  38   18   40 1
  39   19   41 1
  40   20   42 1
  41   22   24 1
  42   23   24 1
  43   24   25 1

#	End of record

