#	Name: ASD03330459
#	Creating user name:	WinNT
#	Creation time:	15. 06. 2019 20:37

#	Modifying user name:	WinNT
#	Modification time:	15. 06. 2019 20:37

#	Program:	/corina/corina34_cracker 3.40 0067  02.08.2006

@<TRIPOS>MOLECULE
ASD03330459
  57   59    0    0    0
SMALL
NO_CHARGES


@<TRIPOS>ATOM
   1 C1            -0.2651     2.0920    -0.6957 C.3     
   2 N2            -0.1035     0.6549    -0.4347 N.3     
   3 C3             0.3497    -0.0587    -1.6424 C.3     
   4 C4             1.5375     0.6811    -2.2013 C.2     
   5 N5             1.8735     1.9537    -1.8409 N.pl3   
   6 C6             1.1111     2.7467    -0.8726 C.3     
   7 C7             2.4536     0.2675    -3.1114 C.2     
   8 N8             3.3344     1.2778    -3.2962 N.2     
   9 C9             2.9913     2.2928    -2.5348 C.2     
  10 C10            3.7029     3.5867    -2.4476 C.ar    
  11 C11            2.4845    -1.0459    -3.7788 C.2     
  12 O12            1.6320    -1.8761    -3.5271 O.2     
  13 C13            3.4881    -2.6330    -5.3316 C.3     
  14 N14            3.4574    -1.3272    -4.6681 N.am    
  15 C15           -1.3470     0.0714     0.0861 C.3     
  16 C16            4.6410     3.9365    -3.4196 C.ar    
  17 C17            4.2145    -3.6415    -4.4393 C.3     
  18 C18            3.4093    -3.8606    -3.1569 C.3     
  19 C19            4.3590    -4.9701    -5.1841 C.3     
  20 C20            5.6017    -3.1022    -4.0846 C.3     
  21 C21            4.2141    -2.5113    -6.6465 C.2     
  22 O22            4.8081    -1.4896    -6.9190 O.2     
  23 N23            4.2034    -3.5379    -7.5197 N.am    
  24 C24            4.9752    -3.4511    -8.7619 C.3     
  25 C25            5.3018     5.1441    -3.3337 C.ar    
  26 C26            5.0357     6.0091    -2.2842 C.ar    
  27 C27            4.1053     5.6662    -1.3160 C.ar    
  28 C28            3.4342     4.4640    -1.3964 C.ar    
  29 F29            5.6860     7.1907    -2.2043 F       
  30 H30           -0.8520     2.2316    -1.6035 H       
  31 H31           -0.7821     2.5568     0.1437 H       
  32 H32            0.6387    -1.0769    -1.3821 H       
  33 H33           -0.4520    -0.0798    -2.3806 H       
  34 H34            0.9894     3.7640    -1.2449 H       
  35 H35            1.6356     2.7643     0.0827 H       
  36 H36            2.4683    -2.9740    -5.5098 H       
  37 H37            4.1372    -0.6651    -4.8688 H       
  38 H38           -2.1608     0.2679    -0.6119 H       
  39 H39           -1.2217    -1.0049     0.2043 H       
  40 H40           -1.5813     0.5182     1.0523 H       
  41 H41            4.8495     3.2628    -4.2375 H       
  42 H42            2.4210    -4.2448    -3.4096 H       
  43 H43            3.9268    -4.5790    -2.5212 H       
  44 H44            3.3064    -2.9140    -2.6263 H       
  45 H45            4.8344    -4.7957    -6.1493 H       
  46 H46            4.9721    -5.6521    -4.5950 H       
  47 H47            3.3733    -5.4091    -5.3385 H       
  48 H48            5.4988    -2.1556    -3.5540 H       
  49 H49            6.1192    -3.8206    -3.4489 H       
  50 H50            6.1753    -2.9461    -4.9982 H       
  51 H51            3.6846    -4.3342    -7.3257 H       
  52 H52            4.6245    -2.6023    -9.3490 H       
  53 H53            6.0308    -3.3178    -8.5252 H       
  54 H54            4.8446    -4.3686    -9.3357 H       
  55 H55            6.0280     5.4158    -4.0854 H       
  56 H56            3.9018     6.3437    -0.4999 H       
  57 H57            2.7090     4.1978    -0.6416 H       
@<TRIPOS>BOND
   1    1    2 1
   2    1    6 1
   3    1   30 1
   4    1   31 1
   5    2    3 1
   6    2   15 1
   7    3    4 1
   8    3   32 1
   9    3   33 1
  10    4    5 1
  11    4    7 2
  12    5    6 1
  13    5    9 1
  14    6   34 1
  15    6   35 1
  16    7    8 1
  17    7   11 1
  18    8    9 2
  19    9   10 1
  20   10   16 ar
  21   10   28 ar
  22   11   12 2
  23   11   14 am
  24   13   14 1
  25   13   17 1
  26   13   21 1
  27   13   36 1
  28   14   37 1
  29   15   38 1
  30   15   39 1
  31   15   40 1
  32   16   25 ar
  33   16   41 1
  34   17   18 1
  35   17   19 1
  36   17   20 1
  37   18   42 1
  38   18   43 1
  39   18   44 1
  40   19   45 1
  41   19   46 1
  42   19   47 1
  43   20   48 1
  44   20   49 1
  45   20   50 1
  46   21   22 2
  47   21   23 am
  48   23   24 1
  49   23   51 1
  50   24   52 1
  51   24   53 1
  52   24   54 1
  53   25   26 ar
  54   25   55 1
  55   26   27 ar
  56   26   29 1
  57   27   28 ar
  58   27   56 1
  59   28   57 1

#	End of record

