#	Name: ASD02039354
#	Creating user name:	WinNT
#	Creation time:	15. 06. 2019 20:18

#	Modifying user name:	WinNT
#	Modification time:	15. 06. 2019 20:18

#	Program:	/corina/corina34_cracker 3.40 0067  02.08.2006

@<TRIPOS>MOLECULE
ASD02039354
  47   49    0    0    0
SMALL
NO_CHARGES


@<TRIPOS>ATOM
   1 C1             0.1358     1.1850    -0.3164 C.ar    
   2 C2             0.5176    -0.0930     0.0499 C.ar    
   3 C3            -0.3864    -1.1372    -0.0179 C.ar    
   4 C4            -2.0715     0.3820    -0.8128 C.ar    
   5 C5            -1.1530     1.4275    -0.7470 C.ar    
   6 C6            -3.4578     0.6367    -1.2748 C.ar    
   7 C7             1.1277     2.3169    -0.2392 C.3     
   8 N8             1.9438     2.3348    -1.4557 N.am    
   9 C9             1.4502     3.0090    -2.6590 C.3     
  10 C10            3.1487     1.7311    -1.4678 C.2     
  11 C11            3.6004     0.9645    -0.2936 C.2     
  12 C12            4.7332     0.2090    -0.2108 C.2     
  13 N13            2.9681     0.8861     0.9052 N.2     
  14 C14            3.6609     0.1197     1.6972 C.2     
  15 N15            4.7638    -0.3181     1.0358 N.pl3   
  16 O16            3.8632     1.8190    -2.4481 O.2     
  17 C17            5.7998    -1.2026     1.5746 C.3     
  18 C18           -4.0414    -0.1578    -2.2672 C.ar    
  19 C19            2.4331     4.1082    -3.0673 C.3     
  20 C20            1.3202     1.9932    -3.7957 C.3     
  21 C21           -1.6785    -0.9083    -0.4531 C.ar    
  22 F22           -2.5616    -1.9286    -0.5198 F       
  23 C23           -4.2174     1.6724    -0.7267 C.ar    
  24 C24           -5.5060     1.8750    -1.1868 C.ar    
  25 N25           -6.0167     1.1041    -2.1301 N.ar    
  26 C26           -5.3324     0.1121    -2.6685 C.ar    
  27 F27           -6.2517     2.8732    -0.6646 F       
  28 H28            1.5262    -0.2762     0.3901 H       
  29 H29           -0.0825    -2.1330     0.2690 H       
  30 H30           -1.4514     2.4278    -1.0241 H       
  31 H31            0.5935     3.2625    -0.1461 H       
  32 H32            1.7721     2.1767     0.6286 H       
  33 H33            0.4754     3.4513    -2.4537 H       
  34 H34            5.4654     0.0596    -0.9906 H       
  35 H35            3.4022    -0.1259     2.7166 H       
  36 H36            5.5317    -2.2401     1.3749 H       
  37 H37            6.7542    -0.9761     1.0993 H       
  38 H38            5.8845    -1.0499     2.6505 H       
  39 H39           -3.4882    -0.9711    -2.7131 H       
  40 H40            3.4238     3.6758    -3.2078 H       
  41 H41            2.1006     4.5651    -3.9993 H       
  42 H42            2.4752     4.8666    -2.2856 H       
  43 H43            0.5859     1.2351    -3.5233 H       
  44 H44            0.9965     2.5029    -4.7033 H       
  45 H45            2.2854     1.5179    -3.9705 H       
  46 H46           -3.8050     2.3055     0.0451 H       
  47 H47           -5.7886    -0.4937    -3.4375 H       
@<TRIPOS>BOND
   1    1    2 ar
   2    1    7 1
   3    1    5 ar
   4    2    3 ar
   5    2   28 1
   6    3   21 ar
   7    3   29 1
   8    4    5 ar
   9    4    6 1
  10    4   21 ar
  11    5   30 1
  12    6   18 ar
  13    6   23 ar
  14    7    8 1
  15    7   31 1
  16    7   32 1
  17    8    9 1
  18    8   10 am
  19    9   20 1
  20    9   19 1
  21    9   33 1
  22   10   11 1
  23   10   16 2
  24   11   12 2
  25   11   13 1
  26   12   15 1
  27   12   34 1
  28   13   14 2
  29   14   15 1
  30   14   35 1
  31   15   17 1
  32   17   36 1
  33   17   37 1
  34   17   38 1
  35   18   26 ar
  36   18   39 1
  37   19   40 1
  38   19   41 1
  39   19   42 1
  40   20   43 1
  41   20   44 1
  42   20   45 1
  43   21   22 1
  44   23   24 ar
  45   23   46 1
  46   24   25 ar
  47   24   27 1
  48   25   26 ar
  49   26   47 1

#	End of record

