#	Name: ASD04930075
#	Creating user name:	WinNT
#	Creation time:	15. 06. 2019 20:56

#	Modifying user name:	WinNT
#	Modification time:	15. 06. 2019 20:56

#	Program:	/corina/corina34_cracker 3.40 0067  02.08.2006

@<TRIPOS>MOLECULE
ASD04930075
  54   55    0    0    0
SMALL
NO_CHARGES


@<TRIPOS>ATOM
   1 C1             2.6866     1.2240     2.2529 C.ar    
   2 C2             2.6244    -0.1368     2.1621 C.ar    
   3 C3             2.3989    -0.7518     0.9366 C.ar    
   4 C4             2.2344     0.0007    -0.2076 C.ar    
   5 C5             2.2939     1.3896    -0.1387 C.ar    
   6 C6             2.5224     2.0072     1.1041 C.ar    
   7 C7             2.5858     3.4697     1.1833 C.2     
   8 N8             2.1298     2.1489    -1.2792 N.am    
   9 C9             2.1815     3.4913    -1.2478 C.2     
  10 C10            2.4148     4.2043     0.0071 C.2     
  11 O11            2.8031     4.0903     2.3616 O.3     
  12 O12            2.0316     4.1227    -2.2788 O.2     
  13 C13            2.4687     5.6711     0.0311 C.2     
  14 O14            1.4408     6.3188    -0.0357 O.2     
  15 N15            3.6567     6.3003     0.1270 N.am    
  16 N16            3.7185     7.6972     0.0398 N.am    
  17 C17            4.9065     8.3264     0.1358 C.2     
  18 C18            4.9731     9.8291     0.0419 C.3     
  19 O19            5.9220     7.6834     0.2976 O.2     
  20 C20            6.4270    10.2848     0.1806 C.3     
  21 C21            6.4946    11.8103     0.0854 C.3     
  22 C22            7.9486    12.2661     0.2241 C.3     
  23 C23            8.0161    13.7916     0.1288 C.3     
  24 C24            9.4701    14.2474     0.2675 C.3     
  25 C25            9.5377    15.7729     0.1722 C.3     
  26 Cl26           2.3242    -2.4838     0.8447 Cl      
  27 C27            1.8934     1.4738    -2.5577 C.3     
  28 C28            0.3891     1.2876    -2.7656 C.3     
  29 H29            2.8578     1.6954     3.2094 H       
  30 H30            2.7516    -0.7397     3.0491 H       
  31 H31            2.0600    -0.4869    -1.1553 H       
  32 H32            2.9048     5.0491     2.2883 H       
  33 H33            4.4688     5.7860     0.2565 H       
  34 H34            2.9064     8.2115    -0.0896 H       
  35 H35            4.5821    10.1505    -0.9234 H       
  36 H36            4.3764    10.2697     0.8406 H       
  37 H37            6.8181     9.9634     1.1460 H       
  38 H38            7.0237     9.8441    -0.6181 H       
  39 H39            6.1036    12.1318    -0.8800 H       
  40 H40            5.8980    12.2510     0.8841 H       
  41 H41            8.3396    11.9446     1.1894 H       
  42 H42            8.5452    11.8254    -0.5746 H       
  43 H43            7.6251    14.1131    -0.8365 H       
  44 H44            7.4195    14.2323     0.9275 H       
  45 H45            9.8611    13.9259     1.2328 H       
  46 H46           10.0667    13.8067    -0.5312 H       
  47 H47           10.5735    16.0976     0.2710 H       
  48 H48            9.1466    16.0944    -0.7931 H       
  49 H49            8.9410    16.2136     0.9709 H       
  50 H50            2.3002     2.0783    -3.3684 H       
  51 H51            2.3825     0.4997    -2.5501 H       
  52 H52            0.2133     0.7853    -3.7169 H       
  53 H53           -0.0176     0.6831    -1.9549 H       
  54 H54           -0.1000     2.2616    -2.7732 H       
@<TRIPOS>BOND
   1    1    2 ar
   2    1    6 ar
   3    1   29 1
   4    2    3 ar
   5    2   30 1
   6    3    4 ar
   7    3   26 1
   8    4    5 ar
   9    4   31 1
  10    5    6 ar
  11    5    8 1
  12    6    7 1
  13    7   10 2
  14    7   11 1
  15    8    9 am
  16    8   27 1
  17    9   10 1
  18    9   12 2
  19   10   13 1
  20   11   32 1
  21   13   14 2
  22   13   15 am
  23   15   16 1
  24   15   33 1
  25   16   17 am
  26   16   34 1
  27   17   18 1
  28   17   19 2
  29   18   20 1
  30   18   35 1
  31   18   36 1
  32   20   21 1
  33   20   37 1
  34   20   38 1
  35   21   22 1
  36   21   39 1
  37   21   40 1
  38   22   23 1
  39   22   41 1
  40   22   42 1
  41   23   24 1
  42   23   43 1
  43   23   44 1
  44   24   25 1
  45   24   45 1
  46   24   46 1
  47   25   47 1
  48   25   48 1
  49   25   49 1
  50   27   28 1
  51   27   50 1
  52   27   51 1
  53   28   52 1
  54   28   53 1
  55   28   54 1

#	End of record

