#	Name: ASD02390009
#	Creating user name:	WinNT
#	Creation time:	15. 06. 2019 20:20

#	Modifying user name:	WinNT
#	Modification time:	15. 06. 2019 20:20

#	Program:	/corina/corina34_cracker 3.40 0067  02.08.2006

@<TRIPOS>MOLECULE
ASD02390009
  51   53    0    0    0
SMALL
NO_CHARGES


@<TRIPOS>ATOM
   1 C1            -0.0164     1.3582     0.0095 C.2     
   2 C2             0.0021    -0.0041     0.0020 C.2     
   3 C3            -1.3303    -0.6165     0.0223 C.2     
   4 C4            -2.2884     0.3030     0.0049 C.2     
   5 S5            -1.6165     1.9319     0.0352 S.3     
   6 C6             1.2397    -0.7856    -0.0244 C.2     
   7 O7             1.7891    -1.1391    -1.2045 O.3     
   8 O8             1.7726    -1.1163     1.0180 O.2     
   9 N9             1.1104     2.1627     0.0031 N.am    
  10 C10            0.9806     3.5042     0.0115 C.2     
  11 O11           -0.1270     4.0084     0.0248 O.2     
  12 C12            2.1735     4.3560     0.0047 C.2     
  13 C13            2.1846     5.7218     0.0119 C.2     
  14 C14            3.5321     6.1144     0.0012 C.2     
  15 C15            4.2752     4.9857    -0.0120 C.2     
  16 O16            3.4531     3.9283    -0.0039 O.3     
  17 C17            3.0163    -1.9137    -1.1546 C.3     
  18 C18            2.7613    -3.2259    -0.4104 C.3     
  19 C19            3.4855    -2.2179    -2.5788 C.3     
  20 C20            4.0951    -1.1133    -0.4222 C.3     
  21 C21           -1.4434    -2.1323     0.1395 C.3     
  22 C22           -2.8851    -2.6072     0.2681 C.3     
  23 C23           -3.5849    -2.6427    -1.0787 C.3     
  24 C24           -3.2162    -1.4802    -1.9788 C.3     
  25 C25           -4.1123    -0.3185    -1.5394 C.3     
  26 C26           -3.7791     0.0380    -0.0874 C.3     
  27 H27            1.9931     1.7609    -0.0075 H       
  28 H28            1.3234     6.3734     0.0233 H       
  29 H29            3.9050     7.1280     0.0025 H       
  30 H30            5.3543     4.9433    -0.0229 H       
  31 H31            1.9927    -3.7961    -0.9322 H       
  32 H32            3.6825    -3.8073    -0.3730 H       
  33 H33            2.4270    -3.0091     0.6042 H       
  34 H34            3.6672    -1.2830    -3.1090 H       
  35 H35            4.4068    -2.7993    -2.5413 H       
  36 H36            2.7170    -2.7881    -3.1005 H       
  37 H37            3.7608    -0.8965     0.5923 H       
  38 H38            5.0163    -1.6947    -0.3848 H       
  39 H39            4.2768    -0.1784    -0.9524 H       
  40 H40           -1.0007    -2.5877    -0.7463 H       
  41 H41           -0.8856    -2.4599     1.0169 H       
  42 H42           -2.8928    -3.6082     0.6994 H       
  43 H43           -3.4245    -1.9313     0.9315 H       
  44 H44           -3.3236    -3.5725    -1.5840 H       
  45 H45           -4.6622    -2.6287    -0.9133 H       
  46 H46           -2.1667    -1.2180    -1.8445 H       
  47 H47           -3.4120    -1.7337    -3.0207 H       
  48 H48           -3.9307     0.5453    -2.1788 H       
  49 H49           -5.1583    -0.6162    -1.6118 H       
  50 H50           -4.0461    -0.7926     0.5659 H       
  51 H51           -4.3303     0.9308     0.2079 H       
@<TRIPOS>BOND
   1    1    2 2
   2    1    9 1
   3    1    5 1
   4    2    3 1
   5    2    6 1
   6    3    4 2
   7    3   21 1
   8    4    5 1
   9    4   26 1
  10    6    7 1
  11    6    8 2
  12    7   17 1
  13    9   10 am
  14    9   27 1
  15   10   11 2
  16   10   12 1
  17   12   13 2
  18   12   16 1
  19   13   14 1
  20   13   28 1
  21   14   15 2
  22   14   29 1
  23   15   16 1
  24   15   30 1
  25   17   18 1
  26   17   19 1
  27   17   20 1
  28   18   31 1
  29   18   32 1
  30   18   33 1
  31   19   34 1
  32   19   35 1
  33   19   36 1
  34   20   37 1
  35   20   38 1
  36   20   39 1
  37   21   22 1
  38   21   40 1
  39   21   41 1
  40   22   23 1
  41   22   42 1
  42   22   43 1
  43   23   24 1
  44   23   44 1
  45   23   45 1
  46   24   25 1
  47   24   46 1
  48   24   47 1
  49   25   26 1
  50   25   48 1
  51   25   49 1
  52   26   50 1
  53   26   51 1

#	End of record

