#	Name: ASD01813422
#	Creating user name:	WinNT
#	Creation time:	15. 06. 2019 19:30

#	Modifying user name:	WinNT
#	Modification time:	15. 06. 2019 19:30

#	Program:	/corina/corina34_cracker 3.40 0067  02.08.2006

@<TRIPOS>MOLECULE
ASD01813422
  44   47    0    0    0
SMALL
NO_CHARGES


@<TRIPOS>ATOM
   1 C1             1.0102     2.3300    -0.4626 C.ar    
   2 C2             1.0364     0.9567    -0.2758 C.ar    
   3 C3             2.2186     0.2542    -0.3726 C.ar    
   4 C4             3.4047     0.9226    -0.6607 C.ar    
   5 C5             3.3787     2.3152    -0.8507 C.ar    
   6 C6             2.1741     3.0154    -0.7499 C.ar    
   7 N7             4.5925     0.2301    -0.7587 N.pl3   
   8 C8             5.7598     0.8268    -1.0329 C.2     
   9 C9             5.8595     2.1877    -1.2386 C.2     
  10 C10            4.6416     3.0107    -1.1552 C.2     
  11 O11            4.6766     4.2164    -1.3292 O.2     
  12 C12            7.1594     2.8051    -1.5369 C.2     
  13 O13            7.2439     4.1357    -1.7359 O.3     
  14 O14            8.1585     2.1158    -1.6041 O.2     
  15 C15            4.5774    -1.2204    -0.5539 C.3     
  16 C16            4.3446    -1.9116    -1.8727 C.ar    
  17 N17            3.1110    -2.0833    -2.3066 N.ar    
  18 C18            2.8536    -2.6806    -3.4522 C.ar    
  19 C19            3.8906    -3.1563    -4.2526 C.ar    
  20 C20            5.2098    -2.9893    -3.8199 C.ar    
  21 C21            5.4283    -2.3508    -2.6116 C.ar    
  22 C22            3.5999    -3.8287    -5.5414 C.ar    
  23 F23            2.1479     4.3538    -0.9323 F       
  24 C24            4.2860    -4.9994    -5.8851 C.ar    
  25 C25            3.9989    -5.6158    -7.0993 C.ar    
  26 C26            3.0415    -5.0421    -7.9206 C.ar    
  27 C27            2.4034    -3.8833    -7.5151 C.ar    
  28 N28            2.6874    -3.3201    -6.3588 N.ar    
  29 N29            5.2421    -5.5391    -5.0249 N.pl3   
  30 H30            0.0752     2.8654    -0.3876 H       
  31 H31            0.1200     0.4310    -0.0516 H       
  32 H32            2.2243    -0.8156    -0.2243 H       
  33 H33            6.6529     0.2227    -1.0946 H       
  34 H34            8.1202     4.4959    -1.9292 H       
  35 H35            5.5345    -1.5390    -0.1407 H       
  36 H36            3.7776    -1.4812     0.1392 H       
  37 H37            1.8299    -2.8030    -3.7738 H       
  38 H38            6.0372    -3.3463    -4.4152 H       
  39 H39            6.4338    -2.2039    -2.2460 H       
  40 H40            4.5104    -6.5199    -7.3947 H       
  41 H41            2.7958    -5.4955    -8.8696 H       
  42 H42            1.6572    -3.4359    -8.1550 H       
  43 H43            5.3490    -5.1782    -4.1309 H       
  44 H44            5.8001    -6.2753    -5.3207 H       
@<TRIPOS>BOND
   1    1    2 ar
   2    1    6 ar
   3    1   30 1
   4    2    3 ar
   5    2   31 1
   6    3    4 ar
   7    3   32 1
   8    4    5 ar
   9    4    7 1
  10    5    6 ar
  11    5   10 1
  12    6   23 1
  13    7    8 1
  14    7   15 1
  15    8    9 2
  16    8   33 1
  17    9   10 1
  18    9   12 1
  19   10   11 2
  20   12   13 1
  21   12   14 2
  22   13   34 1
  23   15   16 1
  24   15   35 1
  25   15   36 1
  26   16   17 ar
  27   16   21 ar
  28   17   18 ar
  29   18   19 ar
  30   18   37 1
  31   19   20 ar
  32   19   22 1
  33   20   21 ar
  34   20   38 1
  35   21   39 1
  36   22   24 ar
  37   22   28 ar
  38   24   25 ar
  39   24   29 1
  40   25   26 ar
  41   25   40 1
  42   26   27 ar
  43   26   41 1
  44   27   28 ar
  45   27   42 1
  46   29   43 1
  47   29   44 1

#	End of record

