#	Name: ASD01411028
#	Creating user name:	WinNT
#	Creation time:	15. 06. 2019 19:19

#	Modifying user name:	WinNT
#	Modification time:	15. 06. 2019 19:19

#	Program:	/corina/corina34_cracker 3.40 0067  02.08.2006

@<TRIPOS>MOLECULE
ASD01411028
  32   35    0    0    0
SMALL
NO_CHARGES


@<TRIPOS>ATOM
   1 C1            -0.3618     1.1966     1.5160 C.ar    
   2 C2            -0.6674    -0.0733     2.0120 C.ar    
   3 O3            -1.8666    -0.6829     1.7964 O.3     
   4 C4            -2.8532     0.0043     1.1539 C.2     
   5 C5            -2.7604     1.4804     1.3184 C.3     
   6 C6            -1.3847     1.8704     0.6811 C.3     
   7 N7            -3.6294     2.4012     0.6237 N.2     
   8 C8            -2.9055     3.4510     0.3103 C.2     
   9 N9            -1.5745     3.3138     0.7088 N.pl3   
  10 C10            0.8586     1.7753     1.7896 C.ar    
  11 C11            1.7979     1.0996     2.5461 C.ar    
  12 C12            1.5096    -0.1630     3.0309 C.ar    
  13 C13            0.2879    -0.7453     2.7673 C.ar    
  14 O14           -3.7220    -0.5350     0.5103 O.2     
  15 C15           -0.6553     4.3113     1.0493 C.ar    
  16 C16            0.1375     4.8916     0.0676 C.ar    
  17 C17            1.0439     5.8767     0.4071 C.ar    
  18 C18            1.1626     6.2856     1.7228 C.ar    
  19 C19            0.3750     5.7095     2.7027 C.ar    
  20 C20           -0.5374     4.7279     2.3690 C.ar    
  21 H21           -2.7539     1.7300     2.3794 H       
  22 H22           -1.3276     1.5104    -0.3462 H       
  23 H23           -3.2952     4.3210    -0.1973 H       
  24 H24            1.0826     2.7616     1.4108 H       
  25 H25            2.7536     1.5561     2.7575 H       
  26 H26            2.2438    -0.6948     3.6179 H       
  27 H27            0.0710    -1.7316     3.1501 H       
  28 H28            0.0456     4.5725    -0.9601 H       
  29 H29            1.6610     6.3281    -0.3557 H       
  30 H30            1.8721     7.0561     1.9857 H       
  31 H31            0.4706     6.0305     3.7295 H       
  32 H32           -1.1522     4.2784     3.1348 H       
@<TRIPOS>BOND
   1    1    2 ar
   2    1   10 ar
   3    1    6 1
   4    2    3 1
   5    2   13 ar
   6    3    4 1
   7    4    5 1
   8    4   14 2
   9    5    6 1
  10    5    7 1
  11    5   21 1
  12    6    9 1
  13    6   22 1
  14    7    8 2
  15    8    9 1
  16    8   23 1
  17    9   15 1
  18   10   11 ar
  19   10   24 1
  20   11   12 ar
  21   11   25 1
  22   12   13 ar
  23   12   26 1
  24   13   27 1
  25   15   16 ar
  26   15   20 ar
  27   16   17 ar
  28   16   28 1
  29   17   18 ar
  30   17   29 1
  31   18   19 ar
  32   18   30 1
  33   19   20 ar
  34   19   31 1
  35   20   32 1

#	End of record

