#	Name: ASD04880159
#	Creating user name:	WinNT
#	Creation time:	15. 06. 2019 20:52

#	Modifying user name:	WinNT
#	Modification time:	15. 06. 2019 20:52

#	Program:	/corina/corina34_cracker 3.40 0067  02.08.2006

@<TRIPOS>MOLECULE
ASD04880159
  39   42    0    0    0
SMALL
NO_CHARGES


@<TRIPOS>ATOM
   1 C1            -0.0163     1.3917    -0.0059 C.ar    
   2 C2            -1.2376     2.0677     0.0493 C.ar    
   3 C3            -2.4188     1.3581     0.0423 C.ar    
   4 C4            -2.4005    -0.0286    -0.0196 C.ar    
   5 C5            -1.1835    -0.7101    -0.0751 C.ar    
   6 C6             0.0033    -0.0043    -0.0742 C.ar    
   7 O7            -3.4119    -0.9431    -0.0392 O.3     
   8 C8            -2.8188    -2.1637    -0.5197 C.3     
   9 O9            -1.4374    -2.0506    -0.1298 O.3     
  10 C10            1.2496     2.1497     0.0017 C.2     
  11 N11            2.4255     1.4968     0.0887 N.am    
  12 O12            1.2320     3.3635    -0.0706 O.2     
  13 N13            2.5787     0.1263     0.2882 N.2     
  14 C14            3.8055    -0.2647     0.3360 C.2     
  15 C15            4.7220     0.9242     0.1549 C.3     
  16 C16            3.7571     2.1140    -0.0179 C.3     
  17 C17            4.2475    -1.6565     0.5372 C.ar    
  18 N18            5.5474    -1.9379     0.5688 N.ar    
  19 C19            3.2992    -2.6671     0.6986 C.ar    
  20 C20            3.7273    -3.9708     0.8873 C.ar    
  21 C21            5.0890    -4.2252     0.9090 C.ar    
  22 C22            5.9823    -3.1721     0.7473 C.ar    
  23 O23            7.3167    -3.4161     0.7674 O.3     
  24 C24            8.1842    -2.2935     0.5960 C.3     
  25 H25           -1.2560     3.1464     0.0979 H       
  26 H26           -3.3619     1.8825     0.0854 H       
  27 H27            0.9454    -0.5305    -0.1174 H       
  28 H28           -3.2816    -3.0278    -0.0430 H       
  29 H29           -2.9063    -2.2309    -1.6041 H       
  30 H30            5.3493     1.0611     1.0357 H       
  31 H31            5.3357     0.8014    -0.7375 H       
  32 H32            3.8929     2.5794    -0.9941 H       
  33 H33            3.9009     2.8433     0.7793 H       
  34 H34            2.2445    -2.4356     0.6770 H       
  35 H35            3.0146    -4.7721     1.0151 H       
  36 H36            5.4532    -5.2315     1.0546 H       
  37 H37            9.2213    -2.6269     0.6323 H       
  38 H38            7.9865    -1.8255    -0.3684 H       
  39 H39            8.0064    -1.5719     1.3933 H       
@<TRIPOS>BOND
   1    1    2 ar
   2    1   10 1
   3    1    6 ar
   4    2    3 ar
   5    2   25 1
   6    3    4 ar
   7    3   26 1
   8    4    5 ar
   9    4    7 1
  10    5    6 ar
  11    5    9 1
  12    6   27 1
  13    7    8 1
  14    8    9 1
  15    8   28 1
  16    8   29 1
  17   10   11 am
  18   10   12 2
  19   11   13 1
  20   11   16 1
  21   13   14 2
  22   14   15 1
  23   14   17 1
  24   15   16 1
  25   15   30 1
  26   15   31 1
  27   16   32 1
  28   16   33 1
  29   17   18 ar
  30   17   19 ar
  31   18   22 ar
  32   19   20 ar
  33   19   34 1
  34   20   21 ar
  35   20   35 1
  36   21   22 ar
  37   21   36 1
  38   22   23 1
  39   23   24 1
  40   24   37 1
  41   24   38 1
  42   24   39 1

#	End of record

