#	Name: ASD03570011
#	Creating user name:	WinNT
#	Creation time:	15. 06. 2019 20:43

#	Modifying user name:	WinNT
#	Modification time:	15. 06. 2019 20:43

#	Program:	/corina/corina34_cracker 3.40 0067  02.08.2006

@<TRIPOS>MOLECULE
ASD03570011
  28   29    0    0    0
SMALL
NO_CHARGES


@<TRIPOS>ATOM
   1 C1            -0.0168     1.3856     0.0097 C.ar    
   2 C2             0.0021    -0.0041     0.0020 C.ar    
   3 C3             1.1965    -0.6900    -0.0131 C.ar    
   4 C4             2.3983     0.0127    -0.0209 C.ar    
   5 C5             2.3769     1.4213    -0.0131 C.ar    
   6 C6             1.1483     2.0964     0.0024 C.ar    
   7 N7             3.7161    -0.3785    -0.0360 N.pl3   
   8 C8             4.5150     0.7495    -0.0379 C.2     
   9 C9             3.7238     1.8552    -0.0242 C.2     
  10 C10            4.1964     3.2862    -0.0216 C.3     
  11 C11            4.3422     3.7777    -1.4632 C.3     
  12 I12           -1.8038    -1.0660     0.0143 I       
  13 I13            1.1010     4.1909     0.0134 I       
  14 C14            4.8149     5.2086    -1.4607 C.2     
  15 O15            5.0146     5.7771    -0.4133 O.2     
  16 O16            5.0140     5.8517    -2.6219 O.3     
  17 C17            5.9835     0.7531    -0.0530 C.2     
  18 O18            6.5888     1.8075    -0.0528 O.2     
  19 O19            6.6605    -0.4130    -0.0669 O.3     
  20 H20           -0.9621     1.9079     0.0170 H       
  21 H21            1.2007    -1.7699    -0.0186 H       
  22 H22            4.0331    -1.2952    -0.0438 H       
  23 H23            3.4704     3.9077     0.5025 H       
  24 H24            5.1605     3.3495     0.4831 H       
  25 H25            5.0683     3.1562    -1.9873 H       
  26 H26            3.3782     3.7144    -1.9679 H       
  27 H27            5.3173     6.7684    -2.5697 H       
  28 H28            7.6260    -0.3600    -0.0764 H       
@<TRIPOS>BOND
   1    1    2 ar
   2    1    6 ar
   3    1   20 1
   4    2    3 ar
   5    2   12 1
   6    3    4 ar
   7    3   21 1
   8    4    5 ar
   9    4    7 1
  10    5    6 ar
  11    5    9 1
  12    6   13 1
  13    7    8 1
  14    7   22 1
  15    8    9 2
  16    8   17 1
  17    9   10 1
  18   10   11 1
  19   10   23 1
  20   10   24 1
  21   11   14 1
  22   11   25 1
  23   11   26 1
  24   14   15 2
  25   14   16 1
  26   16   27 1
  27   17   18 2
  28   17   19 1
  29   19   28 1

#	End of record

