#	Name: ASD01840144
#	Creating user name:	WinNT
#	Creation time:	15. 06. 2019 19:37

#	Modifying user name:	WinNT
#	Modification time:	15. 06. 2019 19:37

#	Program:	/corina/corina34_cracker 3.40 0067  02.08.2006

@<TRIPOS>MOLECULE
ASD01840144
  51   55    0    0    0
SMALL
NO_CHARGES


@<TRIPOS>ATOM
   1 C1            -0.0168     1.3885     0.0097 C.ar    
   2 C2             0.0021    -0.0041     0.0020 C.ar    
   3 N3             1.1262    -0.6793    -0.0119 N.ar    
   4 C4             2.3102    -0.0599    -0.0198 C.ar    
   5 C5             2.3633     1.3570    -0.0132 C.ar    
   6 C6             1.1580     2.0857     0.0022 C.ar    
   7 C7             1.1642     3.5927     0.0093 C.3     
   8 C8            -1.3044    -0.7552     0.0104 C.3     
   9 C9             3.5097    -0.7964    -0.0342 C.ar    
  10 C10            4.7040    -0.1522    -0.0412 C.ar    
  11 C11            4.7676     1.2527    -0.0344 C.ar    
  12 C12            3.6054     2.0069    -0.0206 C.ar    
  13 C13            6.0816     1.9285    -0.0419 C.2     
  14 N14            7.2146     1.1987    -0.0552 N.am    
  15 O15            6.1407     3.1427    -0.0360 O.2     
  16 C16            8.5174     1.8688    -0.0627 C.3     
  17 C17            9.6574     1.0133     0.5188 C.3     
  18 C18            9.2592     1.7662    -1.4076 C.3     
  19 N19           10.4769     1.5192    -0.6044 N.3     
  20 C20           11.2426     0.5011    -1.1605 C.ar    
  21 N21           10.8398    -0.1036    -2.2704 N.ar    
  22 C22           11.5711    -1.0718    -2.7965 C.ar    
  23 C23           12.7531    -1.4541    -2.1920 C.ar    
  24 N24           13.1585    -0.8543    -1.0850 N.ar    
  25 C25           12.4382     0.1167    -0.5571 C.ar    
  26 C26           13.5828    -2.5580    -2.7954 C.3     
  27 C27           13.2198    -3.9975    -2.4253 C.3     
  28 C28           12.9085    -3.4660    -3.8258 C.3     
  29 H29           -0.9589     1.9165     0.0170 H       
  30 H30            1.1555     3.9608    -1.0166 H       
  31 H31            0.2809     3.9572     0.5336 H       
  32 H32            2.0608     3.9499     0.5159 H       
  33 H33           -1.6292    -0.9307    -1.0152 H       
  34 H34           -1.1710    -1.7106     0.5179 H       
  35 H35           -2.0580    -0.1675     0.5346 H       
  36 H36            3.4795    -1.8760    -0.0392 H       
  37 H37            5.6186    -0.7265    -0.0519 H       
  38 H38            3.6560     3.0857    -0.0154 H       
  39 H39            7.1675     0.2299    -0.0599 H       
  40 H40            8.4774     2.8800     0.3422 H       
  41 H41           10.0009     1.3465     1.4981 H       
  42 H42            9.4676    -0.0592     0.4757 H       
  43 H43            8.9529     0.9140    -2.0142 H       
  44 H44            9.2845     2.7011    -1.9675 H       
  45 H45           11.2435    -1.5647    -3.6998 H       
  46 H46           12.7698     0.6063     0.3466 H       
  47 H47           14.6379    -2.3268    -2.9418 H       
  48 H48           14.0360    -4.7134    -2.3287 H       
  49 H49           12.3809    -4.1461    -1.7454 H       
  50 H50           11.8648    -3.2649    -4.0673 H       
  51 H51           13.5199    -3.8322    -4.6506 H       
@<TRIPOS>BOND
   1    1    2 ar
   2    1    6 ar
   3    1   29 1
   4    2    3 ar
   5    2    8 1
   6    3    4 ar
   7    4    5 ar
   8    4    9 ar
   9    5    6 ar
  10    5   12 ar
  11    6    7 1
  12    7   30 1
  13    7   31 1
  14    7   32 1
  15    8   33 1
  16    8   34 1
  17    8   35 1
  18    9   10 ar
  19    9   36 1
  20   10   11 ar
  21   10   37 1
  22   11   12 ar
  23   11   13 1
  24   12   38 1
  25   13   14 am
  26   13   15 2
  27   14   16 1
  28   14   39 1
  29   16   17 1
  30   16   18 1
  31   16   40 1
  32   17   19 1
  33   17   41 1
  34   17   42 1
  35   18   19 1
  36   18   43 1
  37   18   44 1
  38   19   20 1
  39   20   21 ar
  40   20   25 ar
  41   21   22 ar
  42   22   23 ar
  43   22   45 1
  44   23   24 ar
  45   23   26 1
  46   24   25 ar
  47   25   46 1
  48   26   27 1
  49   26   28 1
  50   26   47 1
  51   27   28 1
  52   27   48 1
  53   27   49 1
  54   28   50 1
  55   28   51 1

#	End of record

