#	Name: ASD05490013
#	Creating user name:	WinNT
#	Creation time:	15. 06. 2019 21:00

#	Modifying user name:	WinNT
#	Modification time:	15. 06. 2019 21:00

#	Program:	/corina/corina34_cracker 3.40 0067  02.08.2006

@<TRIPOS>MOLECULE
ASD05490013
  70   74    0    0    0
SMALL
NO_CHARGES


@<TRIPOS>ATOM
   1 O1             0.5563     1.9399    -0.5284 O.3     
   2 N2             2.9417     6.0897    -0.2338 N.pl3   
   3 N3             2.8613     2.0486    -0.5613 N.ar    
   4 C4             4.0057     2.7236    -0.5273 C.ar    
   5 C5             1.6953     2.6735    -0.4890 C.ar    
   6 N6             1.6043     3.9875    -0.3802 N.ar    
   7 C7             2.6989     4.7403    -0.3389 C.ar    
   8 C8             3.9571     4.1221    -0.4124 C.ar    
   9 N9             5.2200     2.0618    -0.6031 N.pl3   
  10 C10            4.2974     6.2645    -0.2507 C.2     
  11 N11            4.8925     5.1050    -0.3499 N.2     
  12 C12            1.9326     7.1466    -0.1293 C.3     
  13 C13            1.6128     7.3939     1.3224 C.ar    
  14 C14            2.3358     8.3319     2.0371 C.ar    
  15 C15            2.0471     8.5625     3.3670 C.ar    
  16 C16            1.0250     7.8487     3.9893 C.ar    
  17 C17            0.2997     6.9054     3.2644 C.ar    
  18 C18            0.5936     6.6863     1.9338 C.ar    
  19 C19            0.7010     0.5232    -0.6470 C.3     
  20 C20           -0.6823    -0.1301    -0.6753 C.3     
  21 C21           -0.5274    -1.6469    -0.8023 C.3     
  22 C22           -1.9106    -2.3002    -0.8306 C.3     
  23 C23            0.7104     8.0920     5.4189 C.ar    
  24 C24           -0.5810     8.4518     5.7994 C.ar    
  25 C25            1.7037     7.9559     6.3863 C.ar    
  26 C26            1.4055     8.1835     7.7147 C.ar    
  27 C27            0.1236     8.5459     8.0861 C.ar    
  28 C28           -0.8680     8.6769     7.1303 C.ar    
  29 C29           -1.6620     8.5954     4.7593 C.3     
  30 N30           -1.4436     9.8295     3.9930 N.3     
  31 C31           -2.2324     9.8248     2.7474 C.3     
  32 C32           -1.8219    11.0190     4.7853 C.3     
  33 C33           -2.3750    12.0266     3.7468 C.3     
  34 C34           -3.1215    11.0860     2.7645 C.3     
  35 O35            4.9291     7.4588    -0.1676 O.3     
  36 C36            6.3578     7.4400    -0.1903 C.3     
  37 H37            5.2415     1.0952    -0.6820 H       
  38 H38            6.0490     2.5648    -0.5773 H       
  39 H39            2.3179     8.0623    -0.5777 H       
  40 H40            1.0279     6.8382    -0.6532 H       
  41 H41            3.1278     8.8846     1.5538 H       
  42 H42            2.6127     9.2946     3.9243 H       
  43 H43           -0.4936     6.3494     3.7419 H       
  44 H44            0.0318     5.9556     1.3709 H       
  45 H45            1.2327     0.2881    -1.5690 H       
  46 H46            1.2650     0.1429     0.2048 H       
  47 H47           -1.2140     0.1049     0.2467 H       
  48 H48           -1.2463     0.2501    -1.5270 H       
  49 H49            0.0044    -1.8820    -1.7243 H       
  50 H50            0.0366    -2.0272     0.0494 H       
  51 H51           -2.4746    -1.9200    -1.6824 H       
  52 H52           -1.8003    -3.3808    -0.9211 H       
  53 H53           -2.4424    -2.0652     0.0914 H       
  54 H54            2.7050     7.6726     6.0974 H       
  55 H55            2.1747     8.0779     8.4655 H       
  56 H56           -0.1055     8.7226     9.1266 H       
  57 H57           -1.8673     8.9605     7.4257 H       
  58 H58           -1.6336     7.7393     4.0851 H       
  59 H59           -2.6345     8.6395     5.2496 H       
  60 H60           -1.5653     9.8530     1.8859 H       
  61 H61           -2.8563     8.9318     2.7070 H       
  62 H62           -2.5925    10.7616     5.5120 H       
  63 H63           -0.9482    11.4336     5.2882 H       
  64 H64           -3.0643    12.7299     4.2139 H       
  65 H65           -1.5641    12.5529     3.2432 H       
  66 H66           -3.1772    11.5317     1.7714 H       
  67 H67           -4.1177    10.8502     3.1387 H       
  68 H68            6.7357     8.4598    -0.1169 H       
  69 H69            6.7269     6.8543     0.6515 H       
  70 H70            6.7004     6.9918    -1.1229 H       
@<TRIPOS>BOND
   1    1   19 1
   2    1    5 1
   3    2   12 1
   4    2    7 1
   5    2   10 1
   6    3    4 ar
   7    3    5 ar
   8    4    9 1
   9    4    8 ar
  10    5    6 ar
  11    6    7 ar
  12    7    8 ar
  13    8   11 1
  14    9   37 1
  15    9   38 1
  16   10   11 2
  17   10   35 1
  18   12   13 1
  19   12   39 1
  20   12   40 1
  21   13   14 ar
  22   13   18 ar
  23   14   15 ar
  24   14   41 1
  25   15   16 ar
  26   15   42 1
  27   16   17 ar
  28   16   23 1
  29   17   18 ar
  30   17   43 1
  31   18   44 1
  32   19   20 1
  33   19   45 1
  34   19   46 1
  35   20   21 1
  36   20   47 1
  37   20   48 1
  38   21   22 1
  39   21   49 1
  40   21   50 1
  41   22   51 1
  42   22   52 1
  43   22   53 1
  44   23   24 ar
  45   23   25 ar
  46   24   29 1
  47   24   28 ar
  48   25   26 ar
  49   25   54 1
  50   26   27 ar
  51   26   55 1
  52   27   28 ar
  53   27   56 1
  54   28   57 1
  55   29   30 1
  56   29   58 1
  57   29   59 1
  58   30   31 1
  59   30   32 1
  60   31   34 1
  61   31   60 1
  62   31   61 1
  63   32   33 1
  64   32   62 1
  65   32   63 1
  66   33   34 1
  67   33   64 1
  68   33   65 1
  69   34   66 1
  70   34   67 1
  71   35   36 1
  72   36   68 1
  73   36   69 1
  74   36   70 1

#	End of record

