#	Name: ASD03910051
#	Creating user name:	WinNT
#	Creation time:	15. 06. 2019 20:47

#	Modifying user name:	WinNT
#	Modification time:	15. 06. 2019 20:47

#	Program:	/corina/corina34_cracker 3.40 0067  02.08.2006

@<TRIPOS>MOLECULE
ASD03910051
  71   73    0    0    0
SMALL
NO_CHARGES


@<TRIPOS>ATOM
   1 C1             0.4412    16.3592    -5.1915 C.ar    
   2 C2             0.8716    16.5349    -6.4938 C.ar    
   3 C3             1.4824    15.4945    -7.1696 C.ar    
   4 C4             1.6640    14.2759    -6.5454 C.ar    
   5 C5             1.2329    14.0963    -5.2376 C.ar    
   6 C6             0.6254    15.1450    -4.5596 C.ar    
   7 N7             1.4154    12.8630    -4.6023 N.am    
   8 C8             0.4964    12.4146    -3.7244 C.2     
   9 O9            -0.4449    13.1164    -3.4204 O.2     
  10 C10           -0.5105    10.7851    -2.1794 C.ar    
  11 C11           -1.6734    10.2050    -2.6515 C.ar    
  12 C12           -2.7257     9.9640    -1.7896 C.ar    
  13 C13           -2.6150    10.3046    -0.4493 C.ar    
  14 C14           -1.4471    10.8865     0.0219 C.ar    
  15 C15           -0.3976    11.1255    -0.8441 C.ar    
  16 O16           -3.6490    10.0690     0.4006 O.3     
  17 C17           -3.4386    10.3784     1.7797 C.3     
  18 C18           -2.2762     9.5828     2.3154 C.2     
  19 C19           -0.2240    17.4958    -4.4588 C.3     
  20 C20            1.9499    15.6903    -8.5888 C.3     
  21 O21           -1.5162    10.0841     3.1166 O.2     
  22 N22           -2.0811     8.3143     1.9040 N.am    
  23 C23            0.6382    11.0411    -3.1206 C.3     
  24 C24           -0.8947     7.5759     2.3437 C.3     
  25 C25           -1.1637     6.9463     3.6862 C.2     
  26 O26           -2.2365     7.0987     4.2208 O.2     
  27 O27           -0.2116     6.2162     4.2879 O.3     
  28 C28           -0.5673     6.4830     1.3242 C.3     
  29 C29           -3.1686    11.8840     1.9469 C.3     
  30 C30           -4.2880    12.4343     2.8546 C.3     
  31 C31           -4.7763    11.1970     3.6482 C.3     
  32 C32           -4.7123    10.0651     2.5918 C.3     
  33 C33           -0.1728     7.1280    -0.0059 C.3     
  34 C34            1.1265     7.9154     0.1746 C.3     
  35 C35            0.0335     6.0381    -1.0598 C.3     
  36 H36            0.7301    17.4866    -6.9844 H       
  37 H37            2.1405    13.4635    -7.0739 H       
  38 H38            0.2894    15.0086    -3.5423 H       
  39 H39            2.2035    12.3307    -4.7938 H       
  40 H40           -1.7593     9.9404    -3.6950 H       
  41 H41           -3.6340     9.5112    -2.1589 H       
  42 H42           -1.3586    11.1529     1.0648 H       
  43 H43            0.5118    11.5785    -0.4777 H       
  44 H44           -1.3002    17.4562    -4.6271 H       
  45 H45           -0.0197    17.4091    -3.3916 H       
  46 H46            0.1668    18.4441    -4.8277 H       
  47 H47            2.9784    16.0511    -8.5860 H       
  48 H48            1.8992    14.7411    -9.1223 H       
  49 H49            1.3101    16.4203    -9.0846 H       
  50 H50           -2.7263     7.8902     1.3169 H       
  51 H51            0.6319    10.2932    -3.9135 H       
  52 H52            1.5780    10.9808    -2.5718 H       
  53 H53           -0.0505     8.2605     2.4261 H       
  54 H54           -0.4307     5.8323     5.1480 H       
  55 H55            0.2601     5.8774     1.6939 H       
  56 H56           -1.4426     5.8506     1.1759 H       
  57 H57           -2.1972    12.0393     2.4163 H       
  58 H58           -3.1980    12.3787     0.9761 H       
  59 H59           -3.8923    13.1906     3.5325 H       
  60 H60           -5.0987    12.8462     2.2535 H       
  61 H61           -4.1074    10.9845     4.4822 H       
  62 H62           -5.7983    11.3414     3.9985 H       
  63 H63           -5.5913    10.0940     1.9480 H       
  64 H64           -4.6265     9.0935     3.0784 H       
  65 H65           -0.9644     7.8029    -0.3314 H       
  66 H66            0.9795     8.6918     0.9254 H       
  67 H67            1.9181     7.2404     0.5001 H       
  68 H68            1.4076     8.3748    -0.7730 H       
  69 H69           -0.8922     5.4772    -1.1884 H       
  70 H70            0.3146     6.4976    -2.0074 H       
  71 H71            0.8251     5.3632    -0.7343 H       
@<TRIPOS>BOND
   1    1    2 ar
   2    1   19 1
   3    1    6 ar
   4    2    3 ar
   5    2   36 1
   6    3    4 ar
   7    3   20 1
   8    4    5 ar
   9    4   37 1
  10    5    6 ar
  11    5    7 1
  12    6   38 1
  13    7    8 am
  14    7   39 1
  15    8    9 2
  16    8   23 1
  17   10   11 ar
  18   10   15 ar
  19   10   23 1
  20   11   12 ar
  21   11   40 1
  22   12   13 ar
  23   12   41 1
  24   13   14 ar
  25   13   16 1
  26   14   15 ar
  27   14   42 1
  28   15   43 1
  29   16   17 1
  30   17   18 1
  31   17   29 1
  32   17   32 1
  33   18   21 2
  34   18   22 am
  35   19   44 1
  36   19   45 1
  37   19   46 1
  38   20   47 1
  39   20   48 1
  40   20   49 1
  41   22   24 1
  42   22   50 1
  43   23   51 1
  44   23   52 1
  45   24   25 1
  46   24   28 1
  47   24   53 1
  48   25   26 2
  49   25   27 1
  50   27   54 1
  51   28   33 1
  52   28   55 1
  53   28   56 1
  54   29   30 1
  55   29   57 1
  56   29   58 1
  57   30   31 1
  58   30   59 1
  59   30   60 1
  60   31   32 1
  61   31   61 1
  62   31   62 1
  63   32   63 1
  64   32   64 1
  65   33   34 1
  66   33   35 1
  67   33   65 1
  68   34   66 1
  69   34   67 1
  70   34   68 1
  71   35   69 1
  72   35   70 1
  73   35   71 1

#	End of record

