#	Name: ASD01190198
#	Creating user name:	WinNT
#	Creation time:	15. 06. 2019 19:08

#	Modifying user name:	WinNT
#	Modification time:	15. 06. 2019 19:08

#	Program:	/corina/corina34_cracker 3.40 0067  02.08.2006

@<TRIPOS>MOLECULE
ASD01190198
  60   64    0    0    0
SMALL
NO_CHARGES


@<TRIPOS>ATOM
   1 C1            -0.0187     1.5258     0.0104 C.3     
   2 C2             0.5214     0.1130    -0.2206 C.3     
   3 N3             3.1196     3.1619     1.0262 N.pl3   
   4 C4             2.3874     2.0742     0.6347 C.2     
   5 C5             1.1069     2.4291     0.4441 C.2     
   6 C6             1.0112     3.8611     0.7376 C.ar    
   7 C7            -0.0335     4.7875     0.7215 C.ar    
   8 C8             0.2092     6.0893     1.0574 C.ar    
   9 C9             1.4866     6.4991     1.4148 C.ar    
  10 C10            2.5317     5.6021     1.4369 C.ar    
  11 C11            2.3073     4.2713     1.0989 C.ar    
  12 C12            4.5528     3.1469     1.3290 C.3     
  13 C13            4.7541     2.9666     2.8349 C.3     
  14 C14            6.2510     2.9510     3.1511 C.3     
  15 N15            6.4442     2.7779     4.5971 N.3     
  16 C16            7.8728     2.7581     4.9386 C.3     
  17 N17           -2.4977     3.4608    -4.6500 N.pl3   
  18 N18           -3.8275     3.4254    -4.2176 N.2     
  19 C19           -3.8886     2.9833    -2.9934 C.2     
  20 C20           -2.5268     2.6966    -2.5535 C.ar    
  21 C21           -1.9707     2.2105    -1.3650 C.ar    
  22 C22           -0.6188     2.0496    -1.2688 C.ar    
  23 C23            0.2095     2.3646    -2.3391 C.ar    
  24 C24           -0.3100     2.8411    -3.5094 C.ar    
  25 C25           -1.6854     3.0152    -3.6370 C.ar    
  26 C26           -2.0650     3.8781    -5.9154 C.ar    
  27 C27           -2.8419     3.6179    -7.0366 C.ar    
  28 C28           -2.4135     4.0300    -8.2831 C.ar    
  29 C29           -1.2100     4.7024    -8.4154 C.ar    
  30 C30           -0.4338     4.9629    -7.2985 C.ar    
  31 C31           -0.8613     4.5574    -6.0495 C.ar    
  32 F32           -0.7925     5.1044    -9.6357 F       
  33 F33            1.0785    -0.3733     0.9670 F       
  34 F34           -0.5235    -0.7256    -0.6232 F       
  35 F35            1.5030     0.1461    -1.2169 F       
  36 O36           -1.0213     1.4919     1.0281 O.3     
  37 H37            2.7815     1.0779     0.4987 H       
  38 H38           -1.0297     4.4760     0.4442 H       
  39 H39           -0.5991     6.8055     1.0445 H       
  40 H40            1.6628     7.5317     1.6778 H       
  41 H41            3.5220     5.9307     1.7159 H       
  42 H42            5.0278     2.3221     0.7977 H       
  43 H43            5.0009     4.0888     1.0127 H       
  44 H44            4.2791     3.7914     3.3662 H       
  45 H45            4.3061     2.0247     3.1512 H       
  46 H46            6.7260     2.1262     2.6198 H       
  47 H47            6.6991     3.8929     2.8348 H       
  48 H48            5.9585     3.4947     5.1151 H       
  49 H49            8.3591     1.9320     4.4197 H       
  50 H50            8.3321     3.6988     4.6347 H       
  51 H51            7.9874     2.6289     6.0148 H       
  52 H52           -4.7869     2.8526    -2.4084 H       
  53 H53           -2.6077     1.9642    -0.5283 H       
  54 H54            1.2771     2.2315    -2.2446 H       
  55 H55            0.3448     3.0825    -4.3336 H       
  56 H56           -3.7803     3.0932    -6.9339 H       
  57 H57           -3.0172     3.8276    -9.1554 H       
  58 H58            0.5046     5.4870    -7.4038 H       
  59 H59           -0.2580     4.7650    -5.1781 H       
  60 H60           -1.4089     2.3552     1.2273 H       
@<TRIPOS>BOND
   1    1    2 1
   2    1    5 1
   3    1   22 1
   4    1   36 1
   5    2   33 1
   6    2   34 1
   7    2   35 1
   8    3    4 1
   9    3   11 1
  10    3   12 1
  11    4    5 2
  12    4   37 1
  13    5    6 1
  14    6    7 ar
  15    6   11 ar
  16    7    8 ar
  17    7   38 1
  18    8    9 ar
  19    8   39 1
  20    9   10 ar
  21    9   40 1
  22   10   11 ar
  23   10   41 1
  24   12   13 1
  25   12   42 1
  26   12   43 1
  27   13   14 1
  28   13   44 1
  29   13   45 1
  30   14   15 1
  31   14   46 1
  32   14   47 1
  33   15   16 1
  34   15   48 1
  35   16   49 1
  36   16   50 1
  37   16   51 1
  38   17   18 1
  39   17   25 1
  40   17   26 1
  41   18   19 2
  42   19   20 1
  43   19   52 1
  44   20   21 ar
  45   20   25 ar
  46   21   22 ar
  47   21   53 1
  48   22   23 ar
  49   23   24 ar
  50   23   54 1
  51   24   25 ar
  52   24   55 1
  53   26   27 ar
  54   26   31 ar
  55   27   28 ar
  56   27   56 1
  57   28   29 ar
  58   28   57 1
  59   29   30 ar
  60   29   32 1
  61   30   31 ar
  62   30   58 1
  63   31   59 1
  64   36   60 1

#	End of record

