#	Name: ASD01812701
#	Creating user name:	WinNT
#	Creation time:	15. 06. 2019 19:29

#	Modifying user name:	WinNT
#	Modification time:	15. 06. 2019 19:29

#	Program:	/corina/corina34_cracker 3.40 0067  02.08.2006

@<TRIPOS>MOLECULE
ASD01812701
  55   59    0    0    0
SMALL
NO_CHARGES


@<TRIPOS>ATOM
   1 C1             0.0567     1.4295    -0.6099 C.ar    
   2 C2             0.1001     0.0670    -0.8279 C.ar    
   3 C3             1.2842    -0.6342    -0.6424 C.ar    
   4 C4             2.4212     0.0277    -0.2398 C.ar    
   5 C5             2.3933     1.4076    -0.0150 C.ar    
   6 C6             1.1953     2.1095    -0.2038 C.ar    
   7 C7             3.8324    -0.4214     0.0462 C.3     
   8 N8             4.5737     0.7827     0.4386 N.am    
   9 C9             3.7388     1.8355     0.4017 C.2     
  10 C10            5.9901     0.8295     0.8098 C.3     
  11 C11            6.8242     1.0737    -0.4213 C.ar    
  12 C12            7.1208     2.3677    -0.8084 C.ar    
  13 C13            7.8846     2.5947    -1.9365 C.ar    
  14 C14            8.3553     1.5220    -2.6818 C.ar    
  15 C15            8.0563     0.2239    -2.2905 C.ar    
  16 C16            7.2963     0.0032    -1.1585 C.ar    
  17 N17            9.1304     1.7492    -3.8276 N.pl3   
  18 C18            9.6488     0.7996    -4.6389 C.2     
  19 C19           10.3278     1.4279    -5.6265 C.2     
  20 C20           10.2217     2.8066    -5.4127 C.2     
  21 N21            9.5002     3.0002    -4.3381 N.2     
  22 F22            1.3198    -1.9676    -0.8570 F       
  23 O23            1.1494     3.4489     0.0092 O.3     
  24 C24           -0.1302     4.0776    -0.0866 C.3     
  25 C25           -0.1336     5.3577     0.7514 C.3     
  26 C26           -1.5037     6.0308     0.6488 C.3     
  27 C27           -1.7935     6.3774    -0.8130 C.3     
  28 C28           -1.7902     5.0973    -1.6509 C.3     
  29 C29           -0.4201     4.4241    -1.5484 C.3     
  30 O30            0.1371     5.0340     2.1167 O.3     
  31 O31            4.0506     2.9787     0.6742 O.2     
  32 H32           -0.8667     1.9690    -0.7605 H       
  33 H33           -0.7907    -0.4558    -1.1436 H       
  34 H34            3.8372    -1.1463     0.8602 H       
  35 H35            4.2750    -0.8590    -0.8486 H       
  36 H36            6.1520     1.6366     1.5243 H       
  37 H37            6.2788    -0.1193     1.2619 H       
  38 H38            6.7544     3.2017    -0.2282 H       
  39 H39            8.1153     3.6055    -2.2387 H       
  40 H40            8.4207    -0.6124    -2.8685 H       
  41 H41            7.0667    -1.0064    -0.8512 H       
  42 H42            9.5407    -0.2683    -4.5198 H       
  43 H43           10.8584     0.9495    -6.4365 H       
  44 H44           10.6573     3.5782    -6.0302 H       
  45 H45           -0.8975     3.3982     0.2848 H       
  46 H46            0.6337     6.0370     0.3800 H       
  47 H47           -2.2710     5.3515     1.0202 H       
  48 H48           -1.5060     6.9428     1.2458 H       
  49 H49           -2.7696     6.8570    -0.8860 H       
  50 H50           -1.0262     7.0567    -1.1843 H       
  51 H51           -2.5575     4.4180    -1.2796 H       
  52 H52           -1.9967     5.3442    -2.6923 H       
  53 H53            0.3472     5.1035    -1.9197 H       
  54 H54           -0.4177     3.5122    -2.1453 H       
  55 H55            0.1504     5.7996     2.7072 H       
@<TRIPOS>BOND
   1    1    2 ar
   2    1    6 ar
   3    1   32 1
   4    2    3 ar
   5    2   33 1
   6    3    4 ar
   7    3   22 1
   8    4    7 1
   9    4    5 ar
  10    5    6 ar
  11    5    9 1
  12    6   23 1
  13    7    8 1
  14    7   34 1
  15    7   35 1
  16    8    9 am
  17    8   10 1
  18    9   31 2
  19   10   11 1
  20   10   36 1
  21   10   37 1
  22   11   12 ar
  23   11   16 ar
  24   12   13 ar
  25   12   38 1
  26   13   14 ar
  27   13   39 1
  28   14   15 ar
  29   14   17 1
  30   15   16 ar
  31   15   40 1
  32   16   41 1
  33   17   18 1
  34   17   21 1
  35   18   19 2
  36   18   42 1
  37   19   20 1
  38   19   43 1
  39   20   21 2
  40   20   44 1
  41   23   24 1
  42   24   25 1
  43   24   29 1
  44   24   45 1
  45   25   26 1
  46   25   30 1
  47   25   46 1
  48   26   27 1
  49   26   47 1
  50   26   48 1
  51   27   28 1
  52   27   49 1
  53   27   50 1
  54   28   29 1
  55   28   51 1
  56   28   52 1
  57   29   53 1
  58   29   54 1
  59   30   55 1

#	End of record

