#	Name: ASD03950079
#	Creating user name:	WinNT
#	Creation time:	15. 06. 2019 20:48

#	Modifying user name:	WinNT
#	Modification time:	15. 06. 2019 20:48

#	Program:	/corina/corina34_cracker 3.40 0067  02.08.2006

@<TRIPOS>MOLECULE
ASD03950079
  51   54    0    0    0
SMALL
NO_CHARGES


@<TRIPOS>ATOM
   1 N1            -0.0207     1.4207     0.0211 N.pl3   
   2 N2            -0.0064     0.0457     0.2757 N.2     
   3 C3             1.2211    -0.3774     0.3749 C.2     
   4 C4             2.1032     0.7703     0.1777 C.ar    
   5 C5             3.4911     0.9326     0.1711 C.ar    
   6 C6             4.0399     2.1877    -0.0521 C.ar    
   7 C7             3.2137     3.2916    -0.2705 C.ar    
   8 C8             1.8319     3.1468    -0.2665 C.ar    
   9 C9             1.2642     1.8789    -0.0417 C.ar    
  10 C10            0.9637     4.3170    -0.4968 C.2     
  11 O11           -0.2453     4.1873    -0.4928 O.2     
  12 N12            1.5106     5.5300    -0.7118 N.am    
  13 N13            0.9494    -4.5504     1.1483 N.3     
  14 C14            1.4799    -3.7146     2.2330 C.3     
  15 C15            1.0883    -2.2549     1.9921 C.3     
  16 C16            1.6538    -1.7954     0.6454 C.3     
  17 C17            1.1242    -2.7119    -0.4610 C.3     
  18 C18            1.5147    -4.1583    -0.1491 C.3     
  19 C19            5.5141     2.3573    -0.0582 C.ar    
  20 C20            6.0709     3.6153    -0.2818 C.ar    
  21 C21            7.4409     3.7707    -0.2865 C.ar    
  22 C22            8.2664     2.6743    -0.0686 C.ar    
  23 C23            7.7134     1.4191     0.1545 C.ar    
  24 C24            6.3438     1.2600     0.1654 C.ar    
  25 N25            9.6558     2.8342    -0.0743 N.am    
  26 C26           10.2065     3.9611     0.4190 C.2     
  27 O27            9.4958     4.8712     0.7900 O.2     
  28 C28           11.7052     4.0902     0.5097 C.3     
  29 H29           -0.8168     1.9622    -0.0964 H       
  30 H30            4.1358     0.0826     0.3397 H       
  31 H31            3.6511     4.2638    -0.4432 H       
  32 H32            2.4751     5.6335    -0.7150 H       
  33 H33            0.9397     6.2994    -0.8633 H       
  34 H34            1.1125    -5.5288     1.3329 H       
  35 H35            1.0667    -4.0492     3.1845 H       
  36 H36            2.5662    -3.7997     2.2589 H       
  37 H37            0.0020    -2.1668     1.9798 H       
  38 H38            1.4955    -1.6327     2.7891 H       
  39 H39            2.7423    -1.8455     0.6712 H       
  40 H40            0.0384    -2.6310    -0.5120 H       
  41 H41            1.5570    -2.4161    -1.4167 H       
  42 H42            2.6009    -4.2413    -0.1120 H       
  43 H43            1.1268    -4.8152    -0.9277 H       
  44 H44            5.4297     4.4677    -0.4516 H       
  45 H45            7.8728     4.7453    -0.4601 H       
  46 H46            8.3568     0.5682     0.3233 H       
  47 H47            5.9144     0.2851     0.3429 H       
  48 H48           10.2231     2.1341    -0.4333 H       
  49 H49           12.1717     3.1800     0.1329 H       
  50 H50           12.0334     4.9408    -0.0876 H       
  51 H51           11.9944     4.2431     1.5494 H       
@<TRIPOS>BOND
   1    1    2 1
   2    1    9 1
   3    1   29 1
   4    2    3 2
   5    3    4 1
   6    3   16 1
   7    4    5 ar
   8    4    9 ar
   9    5    6 ar
  10    5   30 1
  11    6    7 ar
  12    6   19 1
  13    7    8 ar
  14    7   31 1
  15    8    9 ar
  16    8   10 1
  17   10   11 2
  18   10   12 am
  19   12   32 1
  20   12   33 1
  21   13   14 1
  22   13   18 1
  23   13   34 1
  24   14   15 1
  25   14   35 1
  26   14   36 1
  27   15   16 1
  28   15   37 1
  29   15   38 1
  30   16   17 1
  31   16   39 1
  32   17   18 1
  33   17   40 1
  34   17   41 1
  35   18   42 1
  36   18   43 1
  37   19   20 ar
  38   19   24 ar
  39   20   21 ar
  40   20   44 1
  41   21   22 ar
  42   21   45 1
  43   22   23 ar
  44   22   25 1
  45   23   24 ar
  46   23   46 1
  47   24   47 1
  48   25   26 am
  49   25   48 1
  50   26   27 2
  51   26   28 1
  52   28   49 1
  53   28   50 1
  54   28   51 1

#	End of record

