#	Name: ASD00990002
#	Creating user name:	WinNT
#	Creation time:	15. 06. 2019 18:53

#	Modifying user name:	WinNT
#	Modification time:	15. 06. 2019 18:53

#	Program:	/corina/corina34_cracker 3.40 0067  02.08.2006

@<TRIPOS>MOLECULE
ASD00990002
  44   44    0    0    0
SMALL
NO_CHARGES


@<TRIPOS>ATOM
   1 C1            -0.0189     1.5389     0.0105 C.3     
   2 C2             0.0021    -0.0041     0.0020 C.3     
   3 N3             1.3058    -0.4202    -0.5467 N.3     
   4 C4             2.0771     0.7912    -0.8979 C.3     
   5 C5             1.4877     1.9090    -0.0019 C.3     
   6 C6             3.5388     0.5895    -0.5918 C.2     
   7 N7             4.4630     1.3884    -1.1613 N.am    
   8 C8             5.8840     1.1923    -0.8638 C.3     
   9 O9             3.8836    -0.2916     0.1668 O.2     
  10 C10            6.6255     2.4866    -1.0787 C.2     
  11 N11            7.9548     2.5453    -0.8645 N.am    
  12 O12            6.0259     3.4754    -1.4443 O.2     
  13 C13            8.6756     3.8035    -1.0734 C.3     
  14 C14           10.1373     3.6018    -0.7674 C.2     
  15 N15           10.9998     4.6301    -0.8909 N.am    
  16 O16           10.5376     2.5142    -0.4100 O.2     
  17 C17            6.4555     0.1173    -1.7903 C.3     
  18 C18            5.7890    -1.2257    -1.4853 C.3     
  19 C19            6.2679    -2.2732    -2.4925 C.3     
  20 C20            6.1629    -1.6708    -0.0700 C.3     
  21 H21           -0.5172     1.9225    -0.8798 H       
  22 H22           -0.5001     1.9129     0.9142 H       
  23 H23           -0.1103    -0.3820     1.0182 H       
  24 H24           -0.8031    -0.3824    -0.6278 H       
  25 H25            1.8107    -0.9913     0.1144 H       
  26 H26            1.9393     1.0367    -1.9509 H       
  27 H27            1.6450     2.8909    -0.4483 H       
  28 H28            1.9085     1.8666     1.0027 H       
  29 H29            4.1873     2.0931    -1.7681 H       
  30 H30            5.9979     0.8762     0.1732 H       
  31 H31            8.4343     1.7544    -0.5720 H       
  32 H32            8.5617     4.1196    -2.1104 H       
  33 H33            8.2685     4.5694    -0.4133 H       
  34 H34           10.6796     5.5000    -1.1768 H       
  35 H35           11.9407     4.5003    -0.6939 H       
  36 H36            6.2624     0.3914    -2.8275 H       
  37 H37            7.5305     0.0340    -1.6307 H       
  38 H38            4.7067    -1.1193    -1.5587 H       
  39 H39            7.3502    -2.3797    -2.4191 H       
  40 H40            5.7931    -3.2300    -2.2752 H       
  41 H41            6.0016    -1.9561    -3.5008 H       
  42 H42            5.6881    -2.6276     0.1473 H       
  43 H43            7.2452    -1.7773     0.0034 H       
  44 H44            5.8218    -0.9246     0.6476 H       
@<TRIPOS>BOND
   1    1    2 1
   2    1    5 1
   3    1   21 1
   4    1   22 1
   5    2    3 1
   6    2   23 1
   7    2   24 1
   8    3    4 1
   9    3   25 1
  10    4    5 1
  11    4    6 1
  12    4   26 1
  13    5   27 1
  14    5   28 1
  15    6    7 am
  16    6    9 2
  17    7    8 1
  18    7   29 1
  19    8   10 1
  20    8   17 1
  21    8   30 1
  22   10   11 am
  23   10   12 2
  24   11   13 1
  25   11   31 1
  26   13   14 1
  27   13   32 1
  28   13   33 1
  29   14   15 am
  30   14   16 2
  31   15   34 1
  32   15   35 1
  33   17   18 1
  34   17   36 1
  35   17   37 1
  36   18   19 1
  37   18   20 1
  38   18   38 1
  39   19   39 1
  40   19   40 1
  41   19   41 1
  42   20   42 1
  43   20   43 1
  44   20   44 1

#	End of record

