#	Name: ASD01884190
#	Creating user name:	WinNT
#	Creation time:	15. 06. 2019 19:47

#	Modifying user name:	WinNT
#	Modification time:	15. 06. 2019 19:47

#	Program:	/corina/corina34_cracker 3.40 0067  02.08.2006

@<TRIPOS>MOLECULE
ASD01884190
  45   48    0    0    0
SMALL
NO_CHARGES


@<TRIPOS>ATOM
   1 S1            -0.0219     1.7672     0.0118 S.3     
   2 C2             0.0021    -0.0041     0.0020 C.2     
   3 N3             1.2907    -0.3577    -0.0122 N.am    
   4 C4             2.2519     0.6365    -0.0160 C.ar    
   5 C5             1.7391     1.9357    -0.0042 C.ar    
   6 C6             2.5666     3.0413    -0.0061 C.ar    
   7 C7             3.9491     2.8718    -0.0202 C.ar    
   8 C8             4.4761     1.5802    -0.0322 C.ar    
   9 C9             3.6480     0.4853    -0.0309 C.ar    
  10 O10           -0.9607    -0.7487     0.0076 O.2     
  11 C11            4.8501     4.0505    -0.0230 C.ar    
  12 C12            6.2326     3.8740    -0.0371 C.ar    
  13 C13            7.0659     4.9739    -0.0396 C.ar    
  14 C14            6.5315     6.2499    -0.0280 C.ar    
  15 C15            5.1604     6.4309    -0.0140 C.ar    
  16 C16            4.3173     5.3379    -0.0172 C.ar    
  17 C17            9.2170     5.9636    -0.7761 C.3     
  18 C18            8.5609     4.7848    -0.0544 C.3     
  19 C19            9.0803     4.7139     1.3830 C.3     
  20 O20            8.8807     3.5707    -0.7368 O.3     
  21 C21            1.6774    -1.7707    -0.0230 C.3     
  22 C22            1.7987    -2.2552    -1.4692 C.3     
  23 C23            2.3095    -3.6794    -1.6966 C.3     
  24 C24            0.8340    -3.3493    -1.9309 C.3     
  25 F25            3.1072    -3.9074    -2.8230 F       
  26 F26            2.6298    -4.4390    -0.5662 F       
  27 H27            2.1429     4.0347     0.0029 H       
  28 H28            5.5469     1.4402    -0.0435 H       
  29 H29            4.0761    -0.5062    -0.0403 H       
  30 H30            6.6508     2.8784    -0.0458 H       
  31 H31            7.1874     7.1080    -0.0297 H       
  32 H32            4.7486     7.4293    -0.0047 H       
  33 H33            3.2468     5.4803    -0.0107 H       
  34 H34            8.9731     6.8897    -0.2555 H       
  35 H35           10.2983     5.8268    -0.7868 H       
  36 H36            8.8470     6.0141    -1.8001 H       
  37 H37            8.6128     3.8741     1.8972 H       
  38 H38           10.1616     4.5771     1.3723 H       
  39 H39            8.8363     5.6399     1.9036 H       
  40 H40            8.5808     3.5453    -1.6558 H       
  41 H41            2.6364    -1.8888     0.4814 H       
  42 H42            0.9197    -2.3588     0.4949 H       
  43 H43            2.0846    -1.4958    -2.1970 H       
  44 H44            0.1129    -3.7239    -1.2044 H       
  45 H45            0.4849    -3.3098    -2.9627 H       
@<TRIPOS>BOND
   1    1    2 1
   2    1    5 1
   3    2    3 am
   4    2   10 2
   5    3    4 1
   6    3   21 1
   7    4    5 ar
   8    4    9 ar
   9    5    6 ar
  10    6    7 ar
  11    6   27 1
  12    7    8 ar
  13    7   11 1
  14    8    9 ar
  15    8   28 1
  16    9   29 1
  17   11   12 ar
  18   11   16 ar
  19   12   13 ar
  20   12   30 1
  21   13   14 ar
  22   13   18 1
  23   14   15 ar
  24   14   31 1
  25   15   16 ar
  26   15   32 1
  27   16   33 1
  28   17   18 1
  29   17   34 1
  30   17   35 1
  31   17   36 1
  32   18   19 1
  33   18   20 1
  34   19   37 1
  35   19   38 1
  36   19   39 1
  37   20   40 1
  38   21   22 1
  39   21   41 1
  40   21   42 1
  41   22   23 1
  42   22   24 1
  43   22   43 1
  44   23   24 1
  45   23   25 1
  46   23   26 1
  47   24   44 1
  48   24   45 1

#	End of record

