#	Name: ASD03320031
#	Creating user name:	WinNT
#	Creation time:	15. 06. 2019 20:36

#	Modifying user name:	WinNT
#	Modification time:	15. 06. 2019 20:36

#	Program:	/corina/corina34_cracker 3.40 0067  02.08.2006

@<TRIPOS>MOLECULE
ASD03320031
  60   64    0    0    0
SMALL
NO_CHARGES


@<TRIPOS>ATOM
   1 C1            -0.0299     1.2828    -0.1840 C.ar    
   2 C2             0.0213    -0.0948    -0.3951 C.ar    
   3 C3             1.1260     2.0304    -0.2301 C.ar    
   4 C4             2.3494     1.4085    -0.4882 C.ar    
   5 C5             2.3996     0.0290    -0.6994 C.ar    
   6 C6             1.2427    -0.7169    -0.6525 C.ar    
   7 C7             3.5905     2.2100    -0.5382 C.2     
   8 N8             3.5996     3.3992    -1.1725 N.am    
   9 O9             4.6028     1.7966    -0.0074 O.2     
  10 C10           -1.2241    -0.8990    -0.3454 C.ar    
  11 C11           -1.1858    -2.2750    -0.5545 C.ar    
  12 C12           -2.3856    -2.9845    -0.4964 C.ar    
  13 N13           -3.5134    -2.3254    -0.2453 N.ar    
  14 C14           -3.5074    -1.0215    -0.0529 C.ar    
  15 N15           -2.3972    -0.3158    -0.0941 N.ar    
  16 N16           -2.4023    -4.3562    -0.6979 N.pl3   
  17 C17           -3.6032    -5.0652    -0.5856 C.ar    
  18 C18           -3.5999    -6.3681    -0.1019 C.ar    
  19 C19           -4.7880    -7.0657     0.0078 C.ar    
  20 C20           -5.9793    -6.4679    -0.3636 C.ar    
  21 C21           -5.9849    -5.1705    -0.8455 C.ar    
  22 C22           -4.8014    -4.4665    -0.9519 C.ar    
  23 C23            4.7919     4.2576    -1.1355 C.3     
  24 C24            5.2108     4.5769    -2.5759 C.3     
  25 N25            4.0288     5.0382    -3.3174 N.am    
  26 C26            2.8364     4.1798    -3.3544 C.3     
  27 C27            2.4195     3.8579    -1.9187 C.3     
  28 C28            4.0379     6.2273    -3.9517 C.2     
  29 C29            5.2791     7.0259    -4.0058 C.ar    
  30 O30            3.0244     6.6426    -4.4794 O.2     
  31 C31            5.2651     8.3725    -3.6297 C.ar    
  32 C32            6.4323     9.1129    -3.6830 C.ar    
  33 C33            7.6085     8.5237    -4.1066 C.ar    
  34 C34            7.6279     7.1906    -4.4803 C.ar    
  35 C35            6.4738     6.4384    -4.4275 C.ar    
  36 F36            4.1153     8.9488    -3.2159 F       
  37 Cl37          -7.4698    -7.3470    -0.2252 Cl      
  38 Cl38          -2.1053    -7.1186     0.3635 Cl      
  39 H39           -0.9767     1.7643     0.0112 H       
  40 H40            1.0861     3.0973    -0.0669 H       
  41 H41            3.3452    -0.4528    -0.8994 H       
  42 H42            1.2813    -1.7839    -0.8155 H       
  43 H43           -0.2525    -2.7795    -0.7566 H       
  44 H44           -4.4411    -0.5175     0.1488 H       
  45 H45           -1.5814    -4.8243    -0.9167 H       
  46 H46           -4.7865    -8.0784     0.3832 H       
  47 H47           -6.9163    -4.7067    -1.1349 H       
  48 H48           -4.8068    -3.4541    -1.3281 H       
  49 H49            4.5603     5.1830    -0.6082 H       
  50 H50            5.6023     3.7363    -0.6259 H       
  51 H51            5.9685     5.3605    -2.5714 H       
  52 H52            5.6116     3.6798    -3.0478 H       
  53 H53            2.0261     4.7011    -3.8640 H       
  54 H54            3.0681     3.2544    -3.8818 H       
  55 H55            1.6618     3.0744    -1.9247 H       
  56 H56            2.0190     4.7539    -1.4445 H       
  57 H57            6.4244    10.1533    -3.3934 H       
  58 H58            8.5170     9.1062    -4.1468 H       
  59 H59            8.5510     6.7375    -4.8102 H       
  60 H60            6.4919     5.3988    -4.7195 H       
@<TRIPOS>BOND
   1    1    2 ar
   2    1    3 ar
   3    1   39 1
   4    2   10 1
   5    2    6 ar
   6    3    4 ar
   7    3   40 1
   8    4    5 ar
   9    4    7 1
  10    5    6 ar
  11    5   41 1
  12    6   42 1
  13    7    8 am
  14    7    9 2
  15    8   23 1
  16    8   27 1
  17   10   11 ar
  18   10   15 ar
  19   11   12 ar
  20   11   43 1
  21   12   13 ar
  22   12   16 1
  23   13   14 ar
  24   14   15 ar
  25   14   44 1
  26   16   17 1
  27   16   45 1
  28   17   18 ar
  29   17   22 ar
  30   18   19 ar
  31   18   38 1
  32   19   20 ar
  33   19   46 1
  34   20   21 ar
  35   20   37 1
  36   21   22 ar
  37   21   47 1
  38   22   48 1
  39   23   24 1
  40   23   49 1
  41   23   50 1
  42   24   25 1
  43   24   51 1
  44   24   52 1
  45   25   26 1
  46   25   28 am
  47   26   27 1
  48   26   53 1
  49   26   54 1
  50   27   55 1
  51   27   56 1
  52   28   29 1
  53   28   30 2
  54   29   31 ar
  55   29   35 ar
  56   31   32 ar
  57   31   36 1
  58   32   33 ar
  59   32   57 1
  60   33   34 ar
  61   33   58 1
  62   34   35 ar
  63   34   59 1
  64   35   60 1

#	End of record

