#	Name: ASD01903057
#	Creating user name:	WinNT
#	Creation time:	15. 06. 2019 19:54

#	Modifying user name:	WinNT
#	Modification time:	15. 06. 2019 19:54

#	Program:	/corina/corina34_cracker 3.40 0067  02.08.2006

@<TRIPOS>MOLECULE
ASD01903057
  35   37    0    0    0
SMALL
NO_CHARGES


@<TRIPOS>ATOM
   1 C1            -0.0160     1.2944     0.0210 C.2     
   2 N2             0.0004    -0.0032     0.0040 N.2     
   3 C3            -1.1729    -0.6194     0.0268 C.2     
   4 C4            -2.2469     0.1860     0.0650 C.2     
   5 S5            -1.6842     1.8558     0.0782 S.3     
   6 C6            -1.2918    -2.1001     0.0106 C.2     
   7 N7             1.1051     2.1111     0.0028 N.pl3   
   8 C8            -0.2263    -3.0197    -0.0289 C.2     
   9 N9            -0.7299    -4.2258    -0.0308 N.2     
  10 N10           -2.1259    -4.1248     0.0071 N.pl3   
  11 C11           -2.4526    -2.8153     0.0373 C.2     
  12 C12            0.9587     3.4915    -0.0934 C.ar    
  13 N13           -0.2451     4.0127    -0.2730 N.ar    
  14 C14           -0.4275     5.3160    -0.3694 C.ar    
  15 C15            0.6393     6.1882    -0.2860 C.ar    
  16 C16            1.9187     5.6820    -0.0978 C.ar    
  17 C17            2.0779     4.3120     0.0057 C.ar    
  18 C18            1.2400    -2.6734    -0.0634 C.3     
  19 C19            1.9347    -3.2735     1.1606 C.3     
  20 C20            1.8686    -3.2429    -1.3368 C.3     
  21 H21           -3.2780    -0.1347     0.0875 H       
  22 H22            1.9910     1.7200     0.0572 H       
  23 H23           -2.7502    -4.8672     0.0139 H       
  24 H24           -3.4523    -2.4079     0.0703 H       
  25 H25           -1.4241     5.7054    -0.5157 H       
  26 H26            0.4805     7.2535    -0.3667 H       
  27 H27            2.7697     6.3435    -0.0293 H       
  28 H28            3.0587     3.8844     0.1524 H       
  29 H29            1.3578    -1.5899    -0.0533 H       
  30 H30            1.8169    -4.3570     1.1504 H       
  31 H31            2.9952    -3.0230     1.1356 H       
  32 H32            1.4868    -2.8678     2.0678 H       
  33 H33            1.3736    -2.8154    -2.2088 H       
  34 H34            2.9291    -2.9924    -1.3618 H       
  35 H35            1.7508    -4.3264    -1.3470 H       
@<TRIPOS>BOND
   1    1    2 2
   2    1    7 1
   3    1    5 1
   4    2    3 1
   5    3    4 2
   6    3    6 1
   7    4    5 1
   8    4   21 1
   9    6    8 1
  10    6   11 2
  11    7   12 1
  12    7   22 1
  13    8    9 2
  14    8   18 1
  15    9   10 1
  16   10   11 1
  17   10   23 1
  18   11   24 1
  19   12   13 ar
  20   12   17 ar
  21   13   14 ar
  22   14   15 ar
  23   14   25 1
  24   15   16 ar
  25   15   26 1
  26   16   17 ar
  27   16   27 1
  28   17   28 1
  29   18   19 1
  30   18   20 1
  31   18   29 1
  32   19   30 1
  33   19   31 1
  34   19   32 1
  35   20   33 1
  36   20   34 1
  37   20   35 1

#	End of record

