#	Name: ASD00070117
#	Creating user name:	WinNT
#	Creation time:	15. 06. 2019 18:30

#	Modifying user name:	WinNT
#	Modification time:	15. 06. 2019 18:30

#	Program:	/corina/corina34_cracker 3.40 0067  02.08.2006

@<TRIPOS>MOLECULE
ASD00070117
  74   79    0    0    0
SMALL
NO_CHARGES


@<TRIPOS>ATOM
   1 C1            -0.0184     1.5028     0.0103 C.2     
   2 C2             0.0021    -0.0041     0.0020 C.3     
   3 O3             1.0236     2.1234     0.0037 O.2     
   4 N4            -1.1946     2.1607     0.0195 N.am    
   5 C5            -1.2145     3.6256     0.0275 C.3     
   6 C6            -2.5315     4.1210    -0.5732 C.3     
   7 C7            -2.5522     5.6509    -0.5648 C.3     
   8 C8            -2.4266     6.1547     0.8744 C.3     
   9 C9            -1.1096     5.6592     1.4751 C.3     
  10 C10           -1.0888     4.1294     1.4667 C.3     
  11 C11           -2.4474     7.6846     0.8828 C.3     
  12 C12           -2.4475     8.1867     2.3281 C.3     
  13 N13           -2.4674     9.6555     2.3362 N.3     
  14 C14           -2.7062    10.1711     3.6902 C.3     
  15 C15           -2.8652    11.6923     3.6376 C.3     
  16 C16           -1.5944    12.3135     3.0515 C.3     
  17 C17           -1.3419    11.7238     1.6611 C.3     
  18 C18           -1.2270    10.2018     1.7711 C.3     
  19 O19           -0.1300    16.6738     4.2829 O.3     
  20 C20            0.9559    15.7746     4.5638 C.3     
  21 C21            0.2716    14.3876     4.5232 C.3     
  22 C22           -0.9151    14.6506     3.6164 C.ar    
  23 C23           -1.0650    16.0292     3.5322 C.ar    
  24 C24           -1.7681    13.8064     2.9414 C.ar    
  25 C25           -2.7847    14.3293     2.1614 C.ar    
  26 C26           -2.9392    15.6996     2.0636 C.ar    
  27 C27           -2.0875    16.5473     2.7417 C.ar    
  28 O28            5.3234    -1.8055     0.2024 O.3     
  29 C29            5.3157    -2.2411     1.5748 C.3     
  30 O30            4.2717    -1.4539     2.1777 O.3     
  31 C31            3.4062    -1.1588     1.1643 C.ar    
  32 C32            4.0530    -1.3751    -0.0505 C.ar    
  33 C33            2.0944    -0.7145     1.1767 C.ar    
  34 C34            1.4295    -0.4870    -0.0142 C.ar    
  35 C35            2.0711    -0.7020    -1.2194 C.ar    
  36 C36            3.3808    -1.1451    -1.2394 C.ar    
  37 H37           -0.4983    -0.3791     0.8948 H       
  38 H38           -0.5153    -0.3696    -0.8850 H       
  39 H39           -2.0280     1.6644     0.0207 H       
  40 H40           -0.3805     4.0035    -0.5638 H       
  41 H41           -2.6210     3.7621    -1.5985 H       
  42 H42           -3.3655     3.7431     0.0182 H       
  43 H43           -1.7182     6.0288    -1.1561 H       
  44 H44           -3.4905     6.0039    -0.9927 H       
  45 H45           -3.2606     5.7768     1.4658 H       
  46 H46           -0.2756     6.0372     0.8838 H       
  47 H47           -1.0201     6.0182     2.5004 H       
  48 H48           -1.9228     3.7515     2.0581 H       
  49 H49           -0.1506     3.7764     1.8947 H       
  50 H50           -1.5649     8.0627     0.3669 H       
  51 H51           -3.3446     8.0386     0.3752 H       
  52 H52           -3.3300     7.8085     2.8441 H       
  53 H53           -1.5502     7.8327     2.8358 H       
  54 H54           -3.6149     9.7247     4.0939 H       
  55 H55           -1.8614     9.9163     4.3301 H       
  56 H56           -3.7183    11.9474     3.0089 H       
  57 H57           -3.0269    12.0764     4.6448 H       
  58 H58           -0.7475    12.0913     3.7007 H       
  59 H59           -2.1710    11.9795     1.0013 H       
  60 H60           -0.4152    12.1304     1.2562 H       
  61 H61           -0.3891     9.9467     2.4199 H       
  62 H62           -1.0614     9.7776     0.7807 H       
  63 H63            1.7262    15.8477     3.7961 H       
  64 H64            1.3736    15.9702     5.5513 H       
  65 H65            0.9345    13.6386     4.0899 H       
  66 H66           -0.0573    14.0862     5.5177 H       
  67 H67           -3.4548    13.6692     1.6307 H       
  68 H68           -3.7304    16.1088     1.4530 H       
  69 H69           -2.2153    17.6167     2.6601 H       
  70 H70            5.0796    -3.3033     1.6382 H       
  71 H71            6.2750    -2.0320     2.0484 H       
  72 H72            1.5904    -0.5464     2.1170 H       
  73 H73            1.5484    -0.5232    -2.1474 H       
  74 H74            3.8799    -1.3116    -2.1826 H       
@<TRIPOS>BOND
   1    1    2 1
   2    1    3 2
   3    1    4 am
   4    2   34 1
   5    2   37 1
   6    2   38 1
   7    4    5 1
   8    4   39 1
   9    5    6 1
  10    5   10 1
  11    5   40 1
  12    6    7 1
  13    6   41 1
  14    6   42 1
  15    7    8 1
  16    7   43 1
  17    7   44 1
  18    8    9 1
  19    8   11 1
  20    8   45 1
  21    9   10 1
  22    9   46 1
  23    9   47 1
  24   10   48 1
  25   10   49 1
  26   11   12 1
  27   11   50 1
  28   11   51 1
  29   12   13 1
  30   12   52 1
  31   12   53 1
  32   13   14 1
  33   13   18 1
  34   14   15 1
  35   14   54 1
  36   14   55 1
  37   15   16 1
  38   15   56 1
  39   15   57 1
  40   16   17 1
  41   16   24 1
  42   16   58 1
  43   17   18 1
  44   17   59 1
  45   17   60 1
  46   18   61 1
  47   18   62 1
  48   19   20 1
  49   19   23 1
  50   20   21 1
  51   20   63 1
  52   20   64 1
  53   21   22 1
  54   21   65 1
  55   21   66 1
  56   22   23 ar
  57   22   24 ar
  58   23   27 ar
  59   24   25 ar
  60   25   26 ar
  61   25   67 1
  62   26   27 ar
  63   26   68 1
  64   27   69 1
  65   28   29 1
  66   28   32 1
  67   29   30 1
  68   29   70 1
  69   29   71 1
  70   30   31 1
  71   31   32 ar
  72   31   33 ar
  73   32   36 ar
  74   33   34 ar
  75   33   72 1
  76   34   35 ar
  77   35   36 ar
  78   35   73 1
  79   36   74 1

#	End of record

