#	Name: ASD01001293
#	Creating user name:	WinNT
#	Creation time:	15. 06. 2019 18:55

#	Modifying user name:	WinNT
#	Modification time:	15. 06. 2019 18:55

#	Program:	/corina/corina34_cracker 3.40 0067  02.08.2006

@<TRIPOS>MOLECULE
ASD01001293
  44   47    0    0    0
SMALL
NO_CHARGES


@<TRIPOS>ATOM
   1 C1             0.2640     1.4444     0.2226 C.3     
   2 C2             0.1752    -0.0581     0.1486 C.ar    
   3 C3             0.0556    -0.7988     1.3162 C.ar    
   4 C4            -0.0272    -2.1734     1.2703 C.ar    
   5 C5             0.0090    -2.8278     0.0439 C.ar    
   6 C6             0.1303    -2.0721    -1.1384 C.ar    
   7 C7             0.2074    -0.6798    -1.0677 C.ar    
   8 C8             0.1397    -3.0396    -2.2321 C.2     
   9 C9             0.2566    -2.7606    -3.7081 C.3     
  10 C10           -0.2098    -3.9981    -4.4853 C.3     
  11 N11            0.3813    -5.1974    -3.8728 N.am    
  12 C12           -0.0045    -5.5413    -2.4934 C.3     
  13 C13            0.0275    -4.2641    -1.6825 C.2     
  14 N14           -0.0500    -4.1547    -0.3237 N.pl3   
  15 C15           -1.3951    -6.1219    -2.4801 C.ar    
  16 C16           -2.4726    -5.3424    -2.8578 C.ar    
  17 C17           -3.7499    -5.8720    -2.8462 C.ar    
  18 C18           -3.9523    -7.1817    -2.4570 C.ar    
  19 C19           -2.8725    -7.9663    -2.0779 C.ar    
  20 C20           -1.5915    -7.4344    -2.0958 C.ar    
  21 O21           -3.0690    -9.2551    -1.6942 O.3     
  22 C22            1.2542    -5.9632    -4.5570 C.2     
  23 O23            1.4907    -5.7205    -5.7215 O.2     
  24 C24            1.9362    -7.1211    -3.8751 C.3     
  25 H25            1.3090     1.7430     0.3048 H       
  26 H26           -0.1681     1.8788    -0.6790 H       
  27 H27           -0.2848     1.7983     1.0953 H       
  28 H28            0.0275    -0.2929     2.2700 H       
  29 H29           -0.1196    -2.7411     2.1844 H       
  30 H30            0.2996    -0.0961    -1.9716 H       
  31 H31           -0.3701    -1.9078    -3.9692 H       
  32 H32            1.2951    -2.5428    -3.9574 H       
  33 H33           -1.2969    -4.0659    -4.4451 H       
  34 H34            0.1145    -3.9208    -5.5231 H       
  35 H35            0.7022    -6.2607    -2.0795 H       
  36 H36           -0.1337    -4.9000     0.2913 H       
  37 H37           -2.3164    -4.3180    -3.1621 H       
  38 H38           -4.5901    -5.2609    -3.1414 H       
  39 H39           -4.9502    -7.5947    -2.4475 H       
  40 H40           -0.7494    -8.0430    -1.8011 H       
  41 H41           -3.0244    -9.8927    -2.4198 H       
  42 H42            1.6758    -7.1240    -2.8166 H       
  43 H43            1.6100    -8.0553    -4.3321 H       
  44 H44            3.0163    -7.0214    -3.9832 H       
@<TRIPOS>BOND
   1    1    2 1
   2    1   25 1
   3    1   26 1
   4    1   27 1
   5    2    3 ar
   6    2    7 ar
   7    3    4 ar
   8    3   28 1
   9    4    5 ar
  10    4   29 1
  11    5    6 ar
  12    5   14 1
  13    6    7 ar
  14    6    8 1
  15    7   30 1
  16    8    9 1
  17    8   13 2
  18    9   10 1
  19    9   31 1
  20    9   32 1
  21   10   11 1
  22   10   33 1
  23   10   34 1
  24   11   12 1
  25   11   22 am
  26   12   13 1
  27   12   15 1
  28   12   35 1
  29   13   14 1
  30   14   36 1
  31   15   16 ar
  32   15   20 ar
  33   16   17 ar
  34   16   37 1
  35   17   18 ar
  36   17   38 1
  37   18   19 ar
  38   18   39 1
  39   19   20 ar
  40   19   21 1
  41   20   40 1
  42   21   41 1
  43   22   23 2
  44   22   24 1
  45   24   42 1
  46   24   43 1
  47   24   44 1

#	End of record

