#	Name: ASD04230132
#	Creating user name:	WinNT
#	Creation time:	15. 06. 2019 20:48

#	Modifying user name:	WinNT
#	Modification time:	15. 06. 2019 20:48

#	Program:	/corina/corina34_cracker 3.40 0067  02.08.2006

@<TRIPOS>MOLECULE
ASD04230132
  39   42    0    0    0
SMALL
NO_CHARGES


@<TRIPOS>ATOM
   1 C1            -0.0201     1.3790     0.0495 C.ar    
   2 C2            -0.0003    -0.0082     0.0382 C.ar    
   3 C3             1.1848    -0.6862     0.0294 C.ar    
   4 C4             2.3957     0.0212     0.0422 C.ar    
   5 C5             2.3815     1.4276     0.0206 C.ar    
   6 C6             1.1610     2.0997     0.0379 C.ar    
   7 C7             3.6343    -0.6710     0.0720 C.2     
   8 C8             4.7886     0.0708     0.2852 C.2     
   9 C9             4.6293     1.5213     0.4957 C.2     
  10 O10            3.5429     2.1221    -0.0390 O.3     
  11 C11            6.1166    -0.5650     0.3009 C.2     
  12 N12            7.2188     0.1818     0.5104 N.am    
  13 O13            6.2189    -1.7642     0.1248 O.2     
  14 C14            8.4676    -0.4350     0.6376 C.ar    
  15 C15            9.6061     0.1931     0.1478 C.ar    
  16 C16           10.8418    -0.4134     0.2722 C.ar    
  17 C17           10.9516    -1.6464     0.8833 C.ar    
  18 C18            9.8149    -2.2835     1.3776 C.ar    
  19 C19            8.5709    -1.6714     1.2580 C.ar    
  20 C20            9.9316    -3.6097     2.0351 C.2     
  21 O21            5.4495     2.1573     1.1309 O.2     
  22 O22            1.1309     3.4591     0.0425 O.3     
  23 C23           11.0833    -4.3152     2.2282 C.2     
  24 C24            8.8744    -4.3653     2.5783 C.2     
  25 N25            9.3738    -5.4698     3.0664 N.2     
  26 N26           10.7584    -5.4618     2.8588 N.pl3   
  27 H27           -0.9655     1.9009     0.0629 H       
  28 H28           -0.9306    -0.5567     0.0366 H       
  29 H29            1.1898    -1.7661     0.0130 H       
  30 H30            3.6777    -1.7412    -0.0664 H       
  31 H31            7.1460     1.1470     0.5730 H       
  32 H32            9.5252     1.1574    -0.3318 H       
  33 H33           11.7239     0.0785    -0.1101 H       
  34 H34           11.9187    -2.1176     0.9782 H       
  35 H35            7.6873    -2.1612     1.6398 H       
  36 H36            1.1111     3.8550    -0.8395 H       
  37 H37           12.0755    -4.0105     1.9299 H       
  38 H38            7.8324    -4.0813     2.5894 H       
  39 H39           11.3771    -6.1604     3.1233 H       
@<TRIPOS>BOND
   1    1    2 ar
   2    1    6 ar
   3    1   27 1
   4    2    3 ar
   5    2   28 1
   6    3    4 ar
   7    3   29 1
   8    4    5 ar
   9    4    7 1
  10    5    6 ar
  11    5   10 1
  12    6   22 1
  13    7    8 2
  14    7   30 1
  15    8    9 1
  16    8   11 1
  17    9   10 1
  18    9   21 2
  19   11   12 am
  20   11   13 2
  21   12   14 1
  22   12   31 1
  23   14   15 ar
  24   14   19 ar
  25   15   16 ar
  26   15   32 1
  27   16   17 ar
  28   16   33 1
  29   17   18 ar
  30   17   34 1
  31   18   19 ar
  32   18   20 1
  33   19   35 1
  34   20   24 1
  35   20   23 2
  36   22   36 1
  37   23   26 1
  38   23   37 1
  39   24   25 2
  40   24   38 1
  41   25   26 1
  42   26   39 1

#	End of record

