#	Name: ASD02030122
#	Creating user name:	WinNT
#	Creation time:	15. 06. 2019 20:14

#	Modifying user name:	WinNT
#	Modification time:	15. 06. 2019 20:14

#	Program:	/corina/corina34_cracker 3.40 0067  02.08.2006

@<TRIPOS>MOLECULE
ASD02030122
  56   59    0    0    0
SMALL
NO_CHARGES


@<TRIPOS>ATOM
   1 N1            -0.0093     1.2434    -0.4660 N.am    
   2 C2            -0.2656    -0.2010    -0.5547 C.3     
   3 C3            -1.1265    -0.6204     0.6433 C.3     
   4 N4            -2.2702     0.2970     0.7438 N.am    
   5 C5            -2.0139     1.7414     0.8325 C.3     
   6 C6            -1.1528     2.1605    -0.3598 C.3     
   7 C7             1.2520     1.7182    -0.4762 C.2     
   8 C8             2.3949     0.7810    -0.4442 C.2     
   9 N9             3.6622     1.1103    -0.3169 N.2     
  10 N10            2.3217    -0.5597    -0.5344 N.2     
  11 C11            3.5443    -1.0215    -0.4657 C.2     
  12 N12            4.3720     0.0349    -0.3297 N.pl3   
  13 O13            1.4500     2.9171    -0.5117 O.2     
  14 C14           -3.5315    -0.1778     0.7540 C.2     
  15 C15           -3.7735    -1.6399     0.7198 C.ar    
  16 O16           -4.4704     0.5927     0.7913 O.2     
  17 C17           -0.6489     3.5901    -0.1520 C.3     
  18 C18           -1.9821     2.0861    -1.6434 C.3     
  19 C19            5.7678    -0.0267    -0.2211 C.ar    
  20 C20            6.5072     1.1406    -0.0850 C.ar    
  21 C21            7.8828     1.0766     0.0218 C.ar    
  22 C22            8.5237    -0.1484    -0.0073 C.ar    
  23 C23            7.7901    -1.3127    -0.1428 C.ar    
  24 C24            6.4138    -1.2556    -0.2438 C.ar    
  25 N25           -2.7949    -2.4724     1.0339 N.ar    
  26 C26           -2.9695    -3.7862     1.0164 C.ar    
  27 C27           -4.2048    -4.3364     0.6615 C.ar    
  28 C28           -5.2507    -3.4915     0.3269 C.ar    
  29 C29           -5.0343    -2.1234     0.3615 C.ar    
  30 C30           -1.8484    -4.6772     1.3746 C.2     
  31 C31           -0.5135    -4.0920     1.7579 C.3     
  32 O32           -2.0010    -5.8757     1.3606 O.2     
  33 H33           -0.7954    -0.4223    -1.4813 H       
  34 H34            0.6802    -0.7423    -0.5330 H       
  35 H35           -1.4862    -1.6388     0.4965 H       
  36 H36           -0.5335    -0.5673     1.5563 H       
  37 H37           -2.9597     2.2828     0.8108 H       
  38 H38           -1.4841     1.9627     1.7591 H       
  39 H39            3.8371    -2.0602    -0.5070 H       
  40 H40            0.1219     3.5952     0.6187 H       
  41 H41           -0.2317     3.9676    -1.0856 H       
  42 H42           -1.4779     4.2259     0.1589 H       
  43 H43           -2.8384     2.7556    -1.5621 H       
  44 H44           -1.3663     2.3852    -2.4917 H       
  45 H45           -2.3323     1.0645    -1.7910 H       
  46 H46            6.0073     2.0977    -0.0629 H       
  47 H47            8.4584     1.9842     0.1277 H       
  48 H48            9.5994    -0.1958     0.0756 H       
  49 H49            8.2935    -2.2679    -0.1652 H       
  50 H50            5.8413    -2.1653    -0.3493 H       
  51 H51           -4.3421    -5.4076     0.6479 H       
  52 H52           -6.2149    -3.8906     0.0487 H       
  53 H53           -5.8293    -1.4384     0.1063 H       
  54 H54           -0.5674    -3.0043     1.7131 H       
  55 H55           -0.2585    -4.4018     2.7713 H       
  56 H56            0.2507    -4.4467     1.0663 H       
@<TRIPOS>BOND
   1    1    2 1
   2    1    7 am
   3    1    6 1
   4    2    3 1
   5    2   33 1
   6    2   34 1
   7    3    4 1
   8    3   35 1
   9    3   36 1
  10    4    5 1
  11    4   14 am
  12    5    6 1
  13    5   37 1
  14    5   38 1
  15    6   17 1
  16    6   18 1
  17    7    8 1
  18    7   13 2
  19    8    9 2
  20    8   10 1
  21    9   12 1
  22   10   11 2
  23   11   12 1
  24   11   39 1
  25   12   19 1
  26   14   15 1
  27   14   16 2
  28   15   25 ar
  29   15   29 ar
  30   17   40 1
  31   17   41 1
  32   17   42 1
  33   18   43 1
  34   18   44 1
  35   18   45 1
  36   19   20 ar
  37   19   24 ar
  38   20   21 ar
  39   20   46 1
  40   21   22 ar
  41   21   47 1
  42   22   23 ar
  43   22   48 1
  44   23   24 ar
  45   23   49 1
  46   24   50 1
  47   25   26 ar
  48   26   27 ar
  49   26   30 1
  50   27   28 ar
  51   27   51 1
  52   28   29 ar
  53   28   52 1
  54   29   53 1
  55   30   31 1
  56   30   32 2
  57   31   54 1
  58   31   55 1
  59   31   56 1

#	End of record

