#	Name: ASD01881259
#	Creating user name:	WinNT
#	Creation time:	15. 06. 2019 19:42

#	Modifying user name:	WinNT
#	Modification time:	15. 06. 2019 19:42

#	Program:	/corina/corina34_cracker 3.40 0067  02.08.2006

@<TRIPOS>MOLECULE
ASD01881259
  52   55    0    0    0
SMALL
NO_CHARGES


@<TRIPOS>ATOM
   1 C1            -0.0162     1.3398     0.0094 C.2     
   2 N2             0.0021    -0.0041     0.0020 N.am    
   3 C3             1.3976    -0.4572    -0.0137 C.3     
   4 C4             2.2455     0.7903    -0.0151 C.ar    
   5 C5             3.6017     1.0053    -0.0273 C.ar    
   6 C6             4.0981     2.3048    -0.0255 C.ar    
   7 C7             3.2227     3.3847    -0.0109 C.ar    
   8 C8             1.8621     3.1749     0.0014 C.ar    
   9 C9             1.3579     1.8709    -0.0009 C.ar    
  10 O10           -1.0236     2.0205     0.0181 O.2     
  11 C11           -1.1772    -0.8733     0.0093 C.3     
  12 C12           -1.6020    -1.1687    -1.4305 C.3     
  13 O13            5.4382     2.5186    -0.0375 O.3     
  14 C14            5.8783     3.8781    -0.0348 C.3     
  15 C15            8.0729     3.9434    -1.2453 C.ar    
  16 C16            7.3847     3.9185    -0.0494 C.ar    
  17 C17            8.1052     3.9318     1.1479 C.ar    
  18 C18            9.5009     3.9699     1.0783 C.ar    
  19 C19           10.1089     3.9929    -0.1598 C.ar    
  20 N20            9.3914     3.9792    -1.2670 N.ar    
  21 C21            7.4080     3.9065     2.4573 C.ar    
  22 C22            7.7875     2.9881     3.4341 C.ar    
  23 C23            7.1354     2.9690     4.6503 C.ar    
  24 C24            6.1065     3.8590     4.9003 C.ar    
  25 C25            5.7252     4.7725     3.9341 C.ar    
  26 C26            6.3748     4.8049     2.7168 C.ar    
  27 C27           11.6127     4.0346    -0.2490 C.3     
  28 C28            7.3083     3.9232    -2.5437 C.3     
  29 H29            1.6083    -1.0525     0.8747 H       
  30 H30            1.5913    -1.0429    -0.9124 H       
  31 H31            4.2820     0.1666    -0.0380 H       
  32 H32            3.6115     4.3922    -0.0088 H       
  33 H33            1.1852     4.0164     0.0131 H       
  34 H34           -0.9365    -1.8079     0.5161 H       
  35 H35           -1.9925    -0.3751     0.5338 H       
  36 H36           -2.4793    -1.8154    -1.4251 H       
  37 H37           -1.8426    -0.2342    -1.9373 H       
  38 H38           -0.7866    -1.6669    -1.9550 H       
  39 H39            5.4926     4.3866    -0.9185 H       
  40 H40            5.5101     4.3774     0.8614 H       
  41 H41           10.0944     3.9816     1.9805 H       
  42 H42            8.5903     2.2922     3.2397 H       
  43 H43            7.4288     2.2576     5.4081 H       
  44 H44            5.5986     3.8404     5.8533 H       
  45 H45            4.9207     5.4647     4.1343 H       
  46 H46            6.0798     5.5220     1.9650 H       
  47 H47           12.0034     3.0174    -0.2756 H       
  48 H48           11.9084     4.5613    -1.1563 H       
  49 H49           12.0139     4.5552     0.6206 H       
  50 H50            7.0918     4.9454    -2.8538 H       
  51 H51            7.9064     3.4299    -3.3099 H       
  52 H52            6.3736     3.3795    -2.4064 H       
@<TRIPOS>BOND
   1    1    2 am
   2    1    9 1
   3    1   10 2
   4    2    3 1
   5    2   11 1
   6    3    4 1
   7    3   29 1
   8    3   30 1
   9    4    5 ar
  10    4    9 ar
  11    5    6 ar
  12    5   31 1
  13    6    7 ar
  14    6   13 1
  15    7    8 ar
  16    7   32 1
  17    8    9 ar
  18    8   33 1
  19   11   12 1
  20   11   34 1
  21   11   35 1
  22   12   36 1
  23   12   37 1
  24   12   38 1
  25   13   14 1
  26   14   16 1
  27   14   39 1
  28   14   40 1
  29   15   16 ar
  30   15   20 ar
  31   15   28 1
  32   16   17 ar
  33   17   18 ar
  34   17   21 1
  35   18   19 ar
  36   18   41 1
  37   19   20 ar
  38   19   27 1
  39   21   22 ar
  40   21   26 ar
  41   22   23 ar
  42   22   42 1
  43   23   24 ar
  44   23   43 1
  45   24   25 ar
  46   24   44 1
  47   25   26 ar
  48   25   45 1
  49   26   46 1
  50   27   47 1
  51   27   48 1
  52   27   49 1
  53   28   50 1
  54   28   51 1
  55   28   52 1

#	End of record

