#	Name: ASD06660242
#	Creating user name:	WinNT
#	Creation time:	15. 06. 2019 21:08

#	Modifying user name:	WinNT
#	Modification time:	15. 06. 2019 21:08

#	Program:	/corina/corina34_cracker 3.40 0067  02.08.2006

@<TRIPOS>MOLECULE
ASD06660242
  70   73    0    0    0
SMALL
NO_CHARGES


@<TRIPOS>ATOM
   1 C1            -1.4561     1.6366     0.2964 C.2     
   2 C2            -1.2011     0.3251    -0.4006 C.3     
   3 C3            -1.9514     0.3017    -1.7338 C.3     
   4 O4            -0.5327     2.3696     0.5611 O.2     
   5 O5            -2.7095     1.9931     0.6183 O.3     
   6 C6            -1.8105    -1.0591    -2.3658 C.ar    
   7 C7            -2.6845    -2.0737    -2.0210 C.ar    
   8 C8            -2.5581    -3.3220    -2.5983 C.ar    
   9 C9            -1.5516    -3.5576    -3.5262 C.ar    
  10 C10           -0.6753    -2.5362    -3.8702 C.ar    
  11 C11           -0.8109    -1.2887    -3.2933 C.ar    
  12 N12           -1.4206    -4.8190    -4.1116 N.3     
  13 C13           -2.7409    -5.4312    -4.3485 C.3     
  14 C14           -2.8295    -5.7588    -5.8539 C.3     
  15 C15           -1.3406    -5.8356    -6.2831 C.3     
  16 C16           -0.7035    -4.7325    -5.4016 C.3     
  17 C17           -3.5263    -7.1028    -6.0750 C.3     
  18 N18           -3.7026    -7.3310    -7.5113 N.pl3   
  19 C19           -4.3165    -8.4946    -7.9600 C.ar    
  20 C20           -4.7612    -9.4385    -7.0395 C.ar    
  21 C21           -5.3703   -10.5917    -7.4998 C.ar    
  22 C22           -5.5149   -10.7632    -8.8704 C.ar    
  23 C23           -5.0503    -9.7856    -9.7268 C.ar    
  24 N24           -4.4777    -8.6924    -9.2591 N.ar    
  25 C25            1.0595    -0.1657     0.3650 C.2     
  26 C26            2.4899    -0.4201     0.0981 C.ar    
  27 C27            2.9486    -1.7279    -0.0761 C.ar    
  28 C28            4.2841    -1.9595    -0.3254 C.ar    
  29 C29            5.1720    -0.8971    -0.4029 C.ar    
  30 C30            4.7221     0.4028    -0.2308 C.ar    
  31 C31            3.3873     0.6463     0.0133 C.ar    
  32 O32            0.6257    -0.2624     1.4966 O.2     
  33 N33            0.2353     0.1736    -0.6459 N.am    
  34 C34            2.8986     2.0603     0.1940 C.3     
  35 F35            6.4803    -1.1298    -0.6466 F       
  36 C36            1.9850    -2.8834     0.0089 C.3     
  37 C37            1.3137    -3.0887    -1.3506 C.3     
  38 H38           -1.5508    -0.4942     0.2276 H       
  39 H39           -3.0064     0.5144    -1.5607 H       
  40 H40           -1.5330     1.0566    -2.3995 H       
  41 H41           -2.8233     2.8434     1.0644 H       
  42 H42           -3.4666    -1.8899    -1.2993 H       
  43 H43           -3.2408    -4.1141    -2.3283 H       
  44 H44            0.1083    -2.7161    -4.5913 H       
  45 H45           -0.1329    -0.4927    -3.5639 H       
  46 H46           -2.8356    -6.3462    -3.7637 H       
  47 H47           -3.5293    -4.7302    -4.0745 H       
  48 H48           -3.3450    -4.9631    -6.3917 H       
  49 H49           -0.9175    -6.8131    -6.0517 H       
  50 H50           -1.2270    -5.6034    -7.3420 H       
  51 H51           -0.8529    -3.7521    -5.8538 H       
  52 H52            0.3593    -4.9276    -5.2588 H       
  53 H53           -2.9171    -7.9018    -5.6523 H       
  54 H54           -4.5006    -7.0916    -5.5866 H       
  55 H55           -3.3909    -6.6701    -8.1493 H       
  56 H56           -4.6322    -9.2731    -5.9801 H       
  57 H57           -5.7252   -11.3422    -6.8090 H       
  58 H58           -5.9858   -11.6527    -9.2621 H       
  59 H59           -5.1607    -9.9150   -10.7933 H       
  60 H60            4.6398    -2.9703    -0.4602 H       
  61 H61            5.4178     1.2266    -0.2922 H       
  62 H62            0.5931     0.3175    -1.5360 H       
  63 H63            2.9571     2.3331     1.2476 H       
  64 H64            3.5204     2.7373    -0.3917 H       
  65 H65            1.8646     2.1333    -0.1433 H       
  66 H66            2.5259    -3.7879     0.2872 H       
  67 H67            1.2254    -2.6685     0.7605 H       
  68 H68            0.8552    -2.1542    -1.6742 H       
  69 H69            2.0604    -3.3992    -2.0814 H       
  70 H70            0.5471    -3.8588    -1.2647 H       
@<TRIPOS>BOND
   1    1    2 1
   2    1    4 2
   3    1    5 1
   4    2    3 1
   5    2   33 1
   6    2   38 1
   7    3    6 1
   8    3   39 1
   9    3   40 1
  10    5   41 1
  11    6    7 ar
  12    6   11 ar
  13    7    8 ar
  14    7   42 1
  15    8    9 ar
  16    8   43 1
  17    9   10 ar
  18    9   12 1
  19   10   11 ar
  20   10   44 1
  21   11   45 1
  22   12   13 1
  23   12   16 1
  24   13   14 1
  25   13   46 1
  26   13   47 1
  27   14   15 1
  28   14   17 1
  29   14   48 1
  30   15   16 1
  31   15   49 1
  32   15   50 1
  33   16   51 1
  34   16   52 1
  35   17   18 1
  36   17   53 1
  37   17   54 1
  38   18   19 1
  39   18   55 1
  40   19   20 ar
  41   19   24 ar
  42   20   21 ar
  43   20   56 1
  44   21   22 ar
  45   21   57 1
  46   22   23 ar
  47   22   58 1
  48   23   24 ar
  49   23   59 1
  50   25   26 1
  51   25   32 2
  52   25   33 am
  53   26   27 ar
  54   26   31 ar
  55   27   28 ar
  56   27   36 1
  57   28   29 ar
  58   28   60 1
  59   29   30 ar
  60   29   35 1
  61   30   31 ar
  62   30   61 1
  63   31   34 1
  64   33   62 1
  65   34   63 1
  66   34   64 1
  67   34   65 1
  68   36   37 1
  69   36   66 1
  70   36   67 1
  71   37   68 1
  72   37   69 1
  73   37   70 1

#	End of record

