#	Name: ASD03740171
#	Creating user name:	WinNT
#	Creation time:	15. 06. 2019 20:46

#	Modifying user name:	WinNT
#	Modification time:	15. 06. 2019 20:46

#	Program:	/corina/corina34_cracker 3.40 0067  02.08.2006

@<TRIPOS>MOLECULE
ASD03740171
  53   56    0    0    0
SMALL
NO_CHARGES


@<TRIPOS>ATOM
   1 C1            -0.0703     1.3658     0.9124 C.ar    
   2 C2            -0.0502    -0.0236     0.8712 C.ar    
   3 C3            -1.2052    -0.7352     0.7097 C.ar    
   4 C4            -2.4202    -0.0662     0.5844 C.ar    
   5 C5            -2.4426     1.3411     0.6259 C.ar    
   6 C6            -1.2484     2.0479     0.7976 C.ar    
   7 N7            -3.7169    -0.4780     0.4158 N.pl3   
   8 N8            -4.5500     0.6435     0.3509 N.2     
   9 C9            -3.8428     1.7341     0.4701 C.2     
  10 O10           -4.3216     3.0062     0.4529 O.3     
  11 C11           -4.1595    -1.8712     0.3184 C.3     
  12 C12           -4.4804    -2.3936     1.6950 C.ar    
  13 C13           -5.7601    -2.2647     2.2020 C.ar    
  14 C14           -6.0550    -2.7437     3.4645 C.ar    
  15 C15           -5.0693    -3.3523     4.2209 C.ar    
  16 C16           -3.7888    -3.4810     3.7130 C.ar    
  17 C17           -3.4965    -3.0067     2.4481 C.ar    
  18 C18           -5.7320     3.1664     0.2885 C.3     
  19 C19           -6.0802     4.6562     0.2939 C.3     
  20 C20           -7.5903     4.8277     0.1178 C.3     
  21 Cl21          -5.4389    -3.9536     5.8069 Cl      
  22 N22           -7.9246     6.2582     0.1231 N.3     
  23 C23           -9.3410     6.4711    -0.2269 C.3     
  24 C24           -7.6729     6.8563     1.4515 C.3     
  25 C25           -8.7672     7.9410     1.6108 C.3     
  26 C26           -9.9849     7.2596     0.9329 C.3     
  27 C27          -10.0444     5.1226    -0.3933 C.3     
  28 Cl28           1.4143     2.2417     1.1187 Cl      
  29 H29            0.8897    -0.5467     0.9676 H       
  30 H30           -1.1761    -1.8144     0.6790 H       
  31 H31           -1.2564     3.1273     0.8310 H       
  32 H32           -5.0498    -1.9266    -0.3080 H       
  33 H33           -3.3663    -2.4743    -0.1233 H       
  34 H34           -6.5293    -1.7893     1.6116 H       
  35 H35           -7.0547    -2.6426     3.8606 H       
  36 H36           -3.0190    -3.9560     4.3030 H       
  37 H37           -2.4970    -3.1071     2.0515 H       
  38 H38           -6.0398     2.7248    -0.6594 H       
  39 H39           -6.2521     2.6687     1.1070 H       
  40 H40           -5.7724     5.0978     1.2418 H       
  41 H41           -5.5601     5.1539    -0.5246 H       
  42 H42           -7.8981     4.3862    -0.8300 H       
  43 H43           -8.1104     4.3301     0.9364 H       
  44 H44           -9.4124     7.0431    -1.1520 H       
  45 H45           -7.7702     6.1016     2.2320 H       
  46 H46           -6.6820     7.3094     1.4821 H       
  47 H47           -8.9679     8.1416     2.6632 H       
  48 H48           -8.4896     8.8555     1.0866 H       
  49 H49          -10.6813     8.0063     0.5513 H       
  50 H50          -10.4846     6.5843     1.6273 H       
  51 H51           -9.9031     4.5255     0.5076 H       
  52 H52          -11.1095     5.2863    -0.5574 H       
  53 H53           -9.6218     4.5955    -1.2486 H       
@<TRIPOS>BOND
   1    1    2 ar
   2    1   28 1
   3    1    6 ar
   4    2    3 ar
   5    2   29 1
   6    3    4 ar
   7    3   30 1
   8    4    5 ar
   9    4    7 1
  10    5    6 ar
  11    5    9 1
  12    6   31 1
  13    7    8 1
  14    7   11 1
  15    8    9 2
  16    9   10 1
  17   10   18 1
  18   11   12 1
  19   11   32 1
  20   11   33 1
  21   12   13 ar
  22   12   17 ar
  23   13   14 ar
  24   13   34 1
  25   14   15 ar
  26   14   35 1
  27   15   16 ar
  28   15   21 1
  29   16   17 ar
  30   16   36 1
  31   17   37 1
  32   18   19 1
  33   18   38 1
  34   18   39 1
  35   19   20 1
  36   19   40 1
  37   19   41 1
  38   20   22 1
  39   20   42 1
  40   20   43 1
  41   22   23 1
  42   22   24 1
  43   23   27 1
  44   23   26 1
  45   23   44 1
  46   24   25 1
  47   24   45 1
  48   24   46 1
  49   25   26 1
  50   25   47 1
  51   25   48 1
  52   26   49 1
  53   26   50 1
  54   27   51 1
  55   27   52 1
  56   27   53 1

#	End of record

