#	Name: ASD07301033
#	Creating user name:	WinNT
#	Creation time:	15. 06. 2019 21:10

#	Modifying user name:	WinNT
#	Modification time:	15. 06. 2019 21:10

#	Program:	/corina/corina34_cracker 3.40 0067  02.08.2006

@<TRIPOS>MOLECULE
ASD07301033
  28   30    0    0    0
SMALL
NO_CHARGES


@<TRIPOS>ATOM
   1 C1            -0.0171     1.4113     0.0098 C.2     
   2 C2             0.0021    -0.0041     0.0020 C.2     
   3 C3             1.2668    -0.6471    -0.0135 C.2     
   4 C4             2.3777     0.1400    -0.0199 C.2     
   5 N5             2.2504     1.4888    -0.0114 N.pl3   
   6 N6             1.1087     2.0731     0.0026 N.2     
   7 O7            -1.0365    -0.6509     0.0089 O.2     
   8 O8             6.8216     4.5674    -0.2984 O.3     
   9 C9             6.7423     4.8816    -1.7013 C.3     
  10 O10            5.9655     3.8010    -2.2507 O.3     
  11 C11            5.1766     3.3615    -1.2262 C.ar    
  12 C12            5.7034     3.8331    -0.0252 C.ar    
  13 C13            4.0317     2.5843    -1.2202 C.ar    
  14 C14            3.4087     2.2745    -0.0178 C.ar    
  15 C15            3.9363     2.7458     1.1796 C.ar    
  16 C16            5.0804     3.5229     1.1732 C.ar    
  17 F17            3.3308     2.4448     2.3492 F       
  18 F18            6.0900     6.1040    -1.8951 F       
  19 F19            8.0193     4.9086    -2.2719 F       
  20 O20            1.3659    -2.0034    -0.0213 O.3     
  21 C21            2.6830    -2.5576    -0.0369 C.3     
  22 Br22          -1.6647     2.3392     0.0226 Br      
  23 H23            3.3593    -0.3103    -0.0313 H       
  24 H24            3.6227     2.2183    -2.1504 H       
  25 H25            5.4892     3.8883     2.1037 H       
  26 H26            3.2258    -2.2293     0.8495 H       
  27 H27            2.6194    -3.6457    -0.0417 H       
  28 H28            3.2085    -2.2204    -0.9303 H       
@<TRIPOS>BOND
   1    1    2 1
   2    1    6 2
   3    1   22 1
   4    2    3 1
   5    2    7 2
   6    3    4 2
   7    3   20 1
   8    4    5 1
   9    4   23 1
  10    5    6 1
  11    5   14 1
  12    8    9 1
  13    8   12 1
  14    9   10 1
  15    9   18 1
  16    9   19 1
  17   10   11 1
  18   11   12 ar
  19   11   13 ar
  20   12   16 ar
  21   13   14 ar
  22   13   24 1
  23   14   15 ar
  24   15   16 ar
  25   15   17 1
  26   16   25 1
  27   20   21 1
  28   21   26 1
  29   21   27 1
  30   21   28 1

#	End of record

