#	Name: ASD01810260
#	Creating user name:	WinNT
#	Creation time:	15. 06. 2019 19:24

#	Modifying user name:	WinNT
#	Modification time:	15. 06. 2019 19:24

#	Program:	/corina/corina34_cracker 3.40 0067  02.08.2006

@<TRIPOS>MOLECULE
ASD01810260
  51   54    0    0    0
SMALL
NO_CHARGES


@<TRIPOS>ATOM
   1 C1             0.1039     1.4771     0.3913 C.ar    
   2 C2             0.0851     0.0899     0.3832 C.ar    
   3 C3             1.2536    -0.6295     0.2410 C.ar    
   4 C4             2.4698     0.0388     0.1035 C.ar    
   5 C5             2.4841     1.4435     0.1122 C.ar    
   6 C6             1.2943     2.1570     0.2569 C.ar    
   7 N7             3.6451    -0.6678    -0.0390 N.pl3   
   8 C8             4.8372    -0.0734    -0.1733 C.2     
   9 C9             4.9778     1.2999    -0.1796 C.2     
  10 C10            3.7769     2.1382    -0.0342 C.2     
  11 F11            1.2197    -1.9801     0.2354 F       
  12 O12            3.8478     3.3547    -0.0338 O.2     
  13 C13            3.5871    -2.1316    -0.0430 C.3     
  14 C14            3.4440    -2.6248    -1.4598 C.ar    
  15 C15            4.5657    -2.7659    -2.2568 C.ar    
  16 C16            4.4406    -3.2176    -3.5550 C.ar    
  17 C17            3.1812    -3.5317    -4.0623 C.ar    
  18 C18            2.0546    -3.3875    -3.2548 C.ar    
  19 C19            2.1921    -2.9400    -1.9565 C.ar    
  20 C20            3.0403    -4.0172    -5.4571 C.ar    
  21 C21            6.3045     1.9145    -0.3286 C.2     
  22 O22            6.4289     3.2568    -0.3332 O.3     
  23 O23            7.2897     1.2124    -0.4476 O.2     
  24 C24            1.7792    -4.3345    -5.9737 C.ar    
  25 C25            1.6971    -4.7827    -7.2774 C.ar    
  26 C26            2.8624    -4.9032    -8.0292 C.ar    
  27 N27            4.0411    -4.5943    -7.5095 N.ar    
  28 C28            4.1603    -4.1578    -6.2718 C.ar    
  29 N29            2.7883    -5.3538    -9.3412 N.pl3   
  30 C30            1.4826    -5.5940    -9.9606 C.3     
  31 C31            4.0160    -5.5888   -10.1054 C.3     
  32 H32           -0.8196     2.0265     0.4991 H       
  33 H33           -0.8543    -0.4323     0.4898 H       
  34 H34            1.3062     3.2369     0.2631 H       
  35 H35            5.7182    -0.6888    -0.2800 H       
  36 H36            4.5032    -2.5327     0.3906 H       
  37 H37            2.7313    -2.4629     0.5452 H       
  38 H38            5.5411    -2.5219    -1.8627 H       
  39 H39            5.3170    -3.3271    -4.1765 H       
  40 H40            1.0763    -3.6295    -3.6430 H       
  41 H41            1.3197    -2.8280    -1.3298 H       
  42 H42            7.3216     3.6147    -0.4338 H       
  43 H43            0.8914    -4.2318    -5.3674 H       
  44 H44            0.7401    -5.0371    -7.7084 H       
  45 H45            5.1381    -3.9154    -5.8825 H       
  46 H46            1.1378    -4.6815   -10.4469 H       
  47 H47            1.5725    -6.3887   -10.7012 H       
  48 H48            0.7661    -5.8906    -9.1946 H       
  49 H49            4.8808    -5.3574    -9.4837 H       
  50 H50            4.0584    -6.6338   -10.4124 H       
  51 H51            4.0220    -4.9501   -10.9886 H       
@<TRIPOS>BOND
   1    1    2 ar
   2    1    6 ar
   3    1   32 1
   4    2    3 ar
   5    2   33 1
   6    3    4 ar
   7    3   11 1
   8    4    5 ar
   9    4    7 1
  10    5    6 ar
  11    5   10 1
  12    6   34 1
  13    7    8 1
  14    7   13 1
  15    8    9 2
  16    8   35 1
  17    9   10 1
  18    9   21 1
  19   10   12 2
  20   13   14 1
  21   13   36 1
  22   13   37 1
  23   14   15 ar
  24   14   19 ar
  25   15   16 ar
  26   15   38 1
  27   16   17 ar
  28   16   39 1
  29   17   18 ar
  30   17   20 1
  31   18   19 ar
  32   18   40 1
  33   19   41 1
  34   20   24 ar
  35   20   28 ar
  36   21   22 1
  37   21   23 2
  38   22   42 1
  39   24   25 ar
  40   24   43 1
  41   25   26 ar
  42   25   44 1
  43   26   27 ar
  44   26   29 1
  45   27   28 ar
  46   28   45 1
  47   29   30 1
  48   29   31 1
  49   30   46 1
  50   30   47 1
  51   30   48 1
  52   31   49 1
  53   31   50 1
  54   31   51 1

#	End of record

