#	Name: ASD03091965
#	Creating user name:	WinNT
#	Creation time:	15. 06. 2019 20:31

#	Modifying user name:	WinNT
#	Modification time:	15. 06. 2019 20:31

#	Program:	/corina/corina34_cracker 3.40 0067  02.08.2006

@<TRIPOS>MOLECULE
ASD03091965
  56   60    0    0    0
SMALL
NO_CHARGES


@<TRIPOS>ATOM
   1 C1            -0.0170     1.3998     0.0097 C.ar    
   2 C2            -1.2283     2.0682     0.0306 C.ar    
   3 C3            -2.4087     1.3494     0.0435 C.ar    
   4 C4            -2.3914    -0.0360     0.0356 C.ar    
   5 C5            -1.1918    -0.7183     0.0148 C.ar    
   6 C6             0.0021    -0.0041     0.0020 C.ar    
   7 O7             1.1631     2.0665     0.0021 O.3     
   8 C8             2.2620     1.4580     0.6804 C.3     
   9 N9             2.4081     0.0565     0.2863 N.am    
  10 C10            1.3144    -0.6822    -0.0142 C.2     
  11 C11           -3.6892    -0.8018     0.0501 C.3     
  12 C12           -4.2052    -0.9426    -1.3588 C.ar    
  13 C13           -5.0419     0.0234    -1.8869 C.ar    
  14 C14           -3.8365    -2.0346    -2.1227 C.ar    
  15 C15           -4.3074    -2.1662    -3.4145 C.ar    
  16 C16           -5.1519    -1.2007    -3.9457 C.ar    
  17 C17           -5.5165    -0.1029    -3.1778 C.ar    
  18 O18            1.4088    -1.8630    -0.2883 O.2     
  19 C19            3.7406    -0.5484     0.2167 C.3     
  20 C20            3.8134    -1.7396     1.1770 C.3     
  21 N21           -5.6316    -1.3314    -5.2564 N.pl3   
  22 C22            5.1815    -2.4127     1.0399 C.3     
  23 C23            4.0066    -1.0395    -1.2096 C.3     
  24 C24            5.3673    -1.7397    -1.2545 C.3     
  25 O25            5.3780    -2.8177    -0.3164 O.3     
  26 O26            4.0129     0.0743    -2.1048 O.3     
  27 C27           -3.7269     2.0794     0.0669 C.3     
  28 C28           -6.4514    -0.4654    -5.8939 C.2     
  29 C29           -6.6776    -0.9514    -7.1364 C.2     
  30 C30           -5.9735    -2.1538    -7.2635 C.2     
  31 N31           -5.3416    -2.3793    -6.1398 N.2     
  32 H32           -1.2513     3.1479     0.0371 H       
  33 H33           -1.1800    -1.7983     0.0090 H       
  34 H34            3.1773     1.9966     0.4346 H       
  35 H35            2.0934     1.5120     1.7559 H       
  36 H36           -3.5226    -1.7910     0.4766 H       
  37 H37           -4.4213    -0.2647     0.6532 H       
  38 H38           -5.3249     0.8772    -1.2892 H       
  39 H39           -3.1792    -2.7852    -1.7091 H       
  40 H40           -4.0188    -3.0191    -4.0108 H       
  41 H41           -6.1706     0.6515    -3.5895 H       
  42 H42            4.4918     0.1913     0.4936 H       
  43 H43            3.6801    -1.3906     2.2010 H       
  44 H44            3.0290    -2.4550     0.9300 H       
  45 H45            5.9632    -1.7090     1.3260 H       
  46 H46            5.2234    -3.2867     1.6899 H       
  47 H47            3.2261    -1.7409    -1.5049 H       
  48 H48            5.5429    -2.1289    -2.2574 H       
  49 H49            6.1514    -1.0272    -0.9984 H       
  50 H50            4.1760    -0.1638    -3.0278 H       
  51 H51           -4.0596     2.2614    -0.9550 H       
  52 H52           -4.4684     1.4737     0.5879 H       
  53 H53           -3.6062     3.0309     0.5846 H       
  54 H54           -6.8536     0.4496    -5.4849 H       
  55 H55           -7.2935    -0.4925    -7.8957 H       
  56 H56           -5.9516    -2.7849    -8.1397 H       
@<TRIPOS>BOND
   1    1    6 ar
   2    1    7 1
   3    1    2 ar
   4    2    3 ar
   5    2   32 1
   6    3    4 ar
   7    3   27 1
   8    4    5 ar
   9    4   11 1
  10    5    6 ar
  11    5   33 1
  12    6   10 1
  13    7    8 1
  14    8    9 1
  15    8   34 1
  16    8   35 1
  17    9   10 am
  18    9   19 1
  19   10   18 2
  20   11   12 1
  21   11   36 1
  22   11   37 1
  23   12   14 ar
  24   12   13 ar
  25   13   17 ar
  26   13   38 1
  27   14   15 ar
  28   14   39 1
  29   15   16 ar
  30   15   40 1
  31   16   17 ar
  32   16   21 1
  33   17   41 1
  34   19   23 1
  35   19   20 1
  36   19   42 1
  37   20   22 1
  38   20   43 1
  39   20   44 1
  40   21   31 1
  41   21   28 1
  42   22   25 1
  43   22   45 1
  44   22   46 1
  45   23   24 1
  46   23   26 1
  47   23   47 1
  48   24   25 1
  49   24   48 1
  50   24   49 1
  51   26   50 1
  52   27   51 1
  53   27   52 1
  54   27   53 1
  55   28   29 2
  56   28   54 1
  57   29   30 1
  58   29   55 1
  59   30   31 2
  60   30   56 1

#	End of record

