#	Name: ASD04530010
#	Creating user name:	WinNT
#	Creation time:	15. 06. 2019 20:49

#	Modifying user name:	WinNT
#	Modification time:	15. 06. 2019 20:49

#	Program:	/corina/corina34_cracker 3.40 0067  02.08.2006

@<TRIPOS>MOLECULE
ASD04530010
  20   21    0    0    0
SMALL
NO_CHARGES


@<TRIPOS>ATOM
   1 C1            -0.0167     1.3787     0.0096 C.ar    
   2 C2             0.0021    -0.0041     0.0020 C.ar    
   3 C3             1.2076    -0.6851    -0.0127 C.ar    
   4 C4             2.3983     0.0145    -0.0198 C.ar    
   5 C5             2.3842     1.4083    -0.0126 C.ar    
   6 C6             1.1674     2.0879     0.0021 C.ar    
   7 C7             3.6594     2.1655    -0.0197 C.2     
   8 C8             3.6983     3.5088    -0.0133 C.2     
   9 S9             5.3863     4.0137    -0.0253 S.3     
  10 C10            5.8937     2.3276    -0.0382 C.2     
  11 N11            4.8472     1.5616    -0.0274 N.2     
  12 N12            7.2073     1.8875    -0.0517 N.pl3   
  13 Cl13           1.2224    -2.4210    -0.0216 Cl      
  14 H14           -0.9599     1.9048     0.0169 H       
  15 H15           -0.9269    -0.5548     0.0079 H       
  16 H16            3.3383    -0.5172    -0.0305 H       
  17 H17            1.1511     3.1678     0.0074 H       
  18 H18            2.8415     4.1663    -0.0026 H       
  19 H19            7.9341     2.5299    -0.0544 H       
  20 H20            7.4003     0.9369    -0.0585 H       
@<TRIPOS>BOND
   1    1    2 ar
   2    1    6 ar
   3    1   14 1
   4    2    3 ar
   5    2   15 1
   6    3    4 ar
   7    3   13 1
   8    4    5 ar
   9    4   16 1
  10    5    6 ar
  11    5    7 1
  12    6   17 1
  13    7    8 2
  14    7   11 1
  15    8    9 1
  16    8   18 1
  17    9   10 1
  18   10   11 2
  19   10   12 1
  20   12   19 1
  21   12   20 1

#	End of record

