#	Name: ASD01915390
#	Creating user name:	WinNT
#	Creation time:	15. 06. 2019 20:05

#	Modifying user name:	WinNT
#	Modification time:	15. 06. 2019 20:05

#	Program:	/corina/corina34_cracker 3.40 0067  02.08.2006

@<TRIPOS>MOLECULE
ASD01915390
  44   47    0    0    0
SMALL
NO_CHARGES


@<TRIPOS>ATOM
   1 C1             0.0012     1.3493    -0.0642 C.ar    
   2 C2             0.0385    -0.0429    -0.0913 C.ar    
   3 N3             1.1987    -0.6865    -0.0946 N.ar    
   4 C4             2.3467    -0.0407    -0.0727 C.ar    
   5 C5             2.3834     1.3414    -0.0453 C.ar    
   6 C6             1.1928     2.0537    -0.0408 C.ar    
   7 C7             3.7040     2.0670    -0.0199 C.3     
   8 N8             4.7699     1.1505     0.4109 N.am    
   9 C9             5.7548     1.0253    -0.6789 C.3     
  10 C10            5.5967     2.3246    -1.5075 C.3     
  11 C11            4.0635     2.5525    -1.4400 C.3     
  12 C12            4.8359     0.5285     1.6047 C.2     
  13 O13            4.0200     0.7848     2.4703 O.2     
  14 C14            5.8914    -0.4574     1.8606 C.2     
  15 C15           -1.2296    -0.8124    -0.1161 C.ar    
  16 C16           -1.2016    -2.2049    -0.1432 C.ar    
  17 C17           -2.3863    -2.9174    -0.1663 C.ar    
  18 C18           -3.5990    -2.2483    -0.1629 C.ar    
  19 C19           -3.6310    -0.8647    -0.1360 C.ar    
  20 C20           -2.4528    -0.1445    -0.1065 C.ar    
  21 F21           -2.3610    -4.2679    -0.1926 F       
  22 C22            1.1965     3.5604    -0.0117 C.3     
  23 Cl23          -5.1550    -0.0333    -0.1319 Cl      
  24 C24            6.1452    -1.0685     3.0449 C.2     
  25 N25            7.1466    -1.9115     3.0100 N.2     
  26 C26            7.7608    -2.0592     1.8804 C.2     
  27 S27            7.0523    -1.0661     0.6828 S.3     
  28 H28           -0.9439     1.8719    -0.0660 H       
  29 H29            3.2717    -0.5983    -0.0759 H       
  30 H30            3.6473     2.9160     0.6613 H       
  31 H31            6.7636     0.9551    -0.2722 H       
  32 H32            5.5313     0.1536    -1.2939 H       
  33 H33            6.1353     3.1513    -1.0443 H       
  34 H34            5.9245     2.1743    -2.5361 H       
  35 H35            3.5511     1.9541    -2.1934 H       
  36 H36            3.8251     3.6095    -1.5581 H       
  37 H37           -0.2561    -2.7270    -0.1465 H       
  38 H38           -4.5226    -2.8079    -0.1817 H       
  39 H39           -2.4793     0.9349    -0.0852 H       
  40 H40            1.2055     3.9435    -1.0321 H       
  41 H41            0.3035     3.9161     0.5021 H       
  42 H42            2.0834     3.9114     0.5160 H       
  43 H43            5.5713    -0.8760     3.9393 H       
  44 H44            8.5991    -2.7200     1.7164 H       
@<TRIPOS>BOND
   1    1    2 ar
   2    1    6 ar
   3    1   28 1
   4    2    3 ar
   5    2   15 1
   6    3    4 ar
   7    4    5 ar
   8    4   29 1
   9    5    6 ar
  10    5    7 1
  11    6   22 1
  12    7    8 1
  13    7   11 1
  14    7   30 1
  15    8    9 1
  16    8   12 am
  17    9   10 1
  18    9   31 1
  19    9   32 1
  20   10   11 1
  21   10   33 1
  22   10   34 1
  23   11   35 1
  24   11   36 1
  25   12   13 2
  26   12   14 1
  27   14   24 2
  28   14   27 1
  29   15   16 ar
  30   15   20 ar
  31   16   17 ar
  32   16   37 1
  33   17   18 ar
  34   17   21 1
  35   18   19 ar
  36   18   38 1
  37   19   20 ar
  38   19   23 1
  39   20   39 1
  40   22   40 1
  41   22   41 1
  42   22   42 1
  43   24   25 1
  44   24   43 1
  45   25   26 2
  46   26   27 1
  47   26   44 1

#	End of record

