#	Name: ASD03930041
#	Creating user name:	WinNT
#	Creation time:	15. 06. 2019 20:47

#	Modifying user name:	WinNT
#	Modification time:	15. 06. 2019 20:47

#	Program:	/corina/corina34_cracker 3.40 0067  02.08.2006

@<TRIPOS>MOLECULE
ASD03930041
  24   26    0    0    0
SMALL
NO_CHARGES


@<TRIPOS>ATOM
   1 C1            -0.0167     1.3772     0.0096 C.ar    
   2 C2             0.0021    -0.0041     0.0020 C.ar    
   3 C3             1.1830    -0.7444    -0.0039 C.ar    
   4 C4             2.3921    -0.0844    -0.0021 C.ar    
   5 C5             2.3428     1.3087    -0.0123 C.ar    
   6 C6             1.1870     2.0746     0.0019 C.ar    
   7 C7             3.7258    -0.7731     0.0384 C.3     
   8 N8             4.7944    -0.0056    -0.6122 N.am    
   9 S9             5.1020     1.5734    -0.1395 S.o2    
  10 C10            3.4766     2.2630    -0.0690 C.2     
  11 O11            1.5909     3.3617     0.0032 O.3     
  12 C12            2.9479     3.4557    -0.0543 C.2     
  13 O13            5.5952     1.5243     1.1923 O.2     
  14 O14            5.7811     2.2085    -1.2141 O.2     
  15 C15            5.5934    -0.6200    -1.6754 C.3     
  16 F16            1.1422    -2.0947    -0.0108 F       
  17 H17           -0.9560     1.9101     0.0170 H       
  18 H18           -0.9393    -0.5334     0.0010 H       
  19 H19            4.0007    -0.9425     1.0795 H       
  20 H20            3.6361    -1.7389    -0.4588 H       
  21 H21            3.5044     4.3808    -0.0830 H       
  22 H22            5.1208    -0.4323    -2.6396 H       
  23 H23            6.5950    -0.1900    -1.6718 H       
  24 H24            5.6587    -1.6947    -1.5058 H       
@<TRIPOS>BOND
   1    1    2 ar
   2    1    6 ar
   3    1   17 1
   4    2    3 ar
   5    2   18 1
   6    3    4 ar
   7    3   16 1
   8    4    5 ar
   9    4    7 1
  10    5    6 ar
  11    5   10 1
  12    6   11 1
  13    7    8 1
  14    7   19 1
  15    7   20 1
  16    8    9 am
  17    8   15 1
  18    9   10 1
  19    9   13 2
  20    9   14 2
  21   10   12 2
  22   11   12 1
  23   12   21 1
  24   15   22 1
  25   15   23 1
  26   15   24 1

#	End of record

