#	Name: ASD05313039
#	Creating user name:	WinNT
#	Creation time:	15. 06. 2019 20:58

#	Modifying user name:	WinNT
#	Modification time:	15. 06. 2019 20:58

#	Program:	/corina/corina34_cracker 3.40 0067  02.08.2006

@<TRIPOS>MOLECULE
ASD05313039
  41   44    0    0    0
SMALL
NO_CHARGES


@<TRIPOS>ATOM
   1 C1            -0.0721     0.8167     1.0249 C.2     
   2 C2             0.1140    -0.6195     0.5970 C.3     
   3 N3             0.9299     1.7301     1.0512 N.pl3   
   4 N4             1.4571    -0.7186    -0.0050 N.am    
   5 C5             2.5714    -0.0369     0.6710 C.3     
   6 C6             2.3166     1.4751     0.6647 C.3     
   7 N7            -0.9038     2.6395     1.7096 N.2     
   8 N8            -1.1571     1.4075     1.4279 N.2     
   9 C9             0.3717     2.8893     1.4961 C.2     
  10 O10            2.6010     5.5865     1.7550 O.3     
  11 N11            2.3342     4.4363     1.4945 N.2     
  12 C12            1.0650     4.1808     1.7027 C.2     
  13 C13            0.4886     5.3972     2.1671 C.2     
  14 C14            1.5254     6.2648     2.1798 C.2     
  15 C15            1.4809     7.7136     2.5921 C.3     
  16 C16            1.6575    -1.4144    -1.1417 C.2     
  17 O17            2.7490    -1.4036    -1.6766 O.2     
  18 C18            0.5502    -2.1904    -1.7379 C.ar    
  19 C19            0.3186    -2.1387    -3.1150 C.ar    
  20 C20           -0.7182    -2.8668    -3.6648 C.ar    
  21 C21           -1.5259    -3.6448    -2.8553 C.ar    
  22 C22           -1.3018    -3.6997    -1.4909 C.ar    
  23 C23           -0.2657    -2.9830    -0.9289 C.ar    
  24 C24           -0.9704    -2.8130    -5.1495 C.3     
  25 F25           -2.0640    -3.6258    -5.4666 F       
  26 F26           -1.2440    -1.4944    -5.5286 F       
  27 F27            0.1627    -3.2688    -5.8318 F       
  28 Cl28           1.3311    -1.1615    -4.1318 Cl      
  29 H29            0.0451    -1.2776     1.4632 H       
  30 H30           -0.6440    -0.8898    -0.1381 H       
  31 H31            2.6437    -0.3896     1.6998 H       
  32 H32            3.5020    -0.2515     0.1455 H       
  33 H33            2.4943     1.8702    -0.3355 H       
  34 H34            2.9874     1.9605     1.3735 H       
  35 H35           -0.5385     5.5836     2.4444 H       
  36 H36            2.4750     8.1499     2.4944 H       
  37 H37            0.7830     8.2525     1.9512 H       
  38 H38            1.1524     7.7864     3.6289 H       
  39 H39           -2.3356    -4.2120    -3.2901 H       
  40 H40           -1.9369    -4.3088    -0.8648 H       
  41 H41           -0.0892    -3.0312     0.1355 H       
@<TRIPOS>BOND
   1    1    2 1
   2    1    3 1
   3    1    8 2
   4    2    4 1
   5    2   29 1
   6    2   30 1
   7    3    6 1
   8    3    9 1
   9    4    5 1
  10    4   16 am
  11    5    6 1
  12    5   31 1
  13    5   32 1
  14    6   33 1
  15    6   34 1
  16    7    8 1
  17    7    9 2
  18    9   12 1
  19   10   11 1
  20   10   14 1
  21   11   12 2
  22   12   13 1
  23   13   14 2
  24   13   35 1
  25   14   15 1
  26   15   36 1
  27   15   37 1
  28   15   38 1
  29   16   17 2
  30   16   18 1
  31   18   19 ar
  32   18   23 ar
  33   19   20 ar
  34   19   28 1
  35   20   21 ar
  36   20   24 1
  37   21   22 ar
  38   21   39 1
  39   22   23 ar
  40   22   40 1
  41   23   41 1
  42   24   25 1
  43   24   26 1
  44   24   27 1

#	End of record

