#	Name: ASD06340085
#	Creating user name:	WinNT
#	Creation time:	15. 06. 2019 21:06

#	Modifying user name:	WinNT
#	Modification time:	15. 06. 2019 21:06

#	Program:	/corina/corina34_cracker 3.40 0067  02.08.2006

@<TRIPOS>MOLECULE
ASD06340085
  38   40    0    0    0
SMALL
NO_CHARGES


@<TRIPOS>ATOM
   1 S1            -0.0210     1.6939     0.0114 S.3     
   2 N2             0.0021    -0.0041     0.0020 N.am    
   3 C3             1.2962    -0.3594    -0.0122 C.2     
   4 N4             2.1856     0.6226    -0.0155 N.am    
   5 C5             1.6912     1.8721    -0.0040 C.2     
   6 O6             1.6365    -1.5277    -0.0214 O.2     
   7 O7             2.3224     2.9128    -0.0052 O.2     
   8 C8             3.6269     0.3610    -0.0302 C.3     
   9 C9             4.1080     0.2785    -1.4559 C.ar    
  10 C10            4.5424     1.4190    -2.1055 C.ar    
  11 C11            4.9844     1.3437    -3.4138 C.ar    
  12 C12            4.9915     0.1255    -4.0725 C.ar    
  13 C13            4.5565    -1.0144    -3.4211 C.ar    
  14 C14            4.1200    -0.9382    -2.1116 C.ar    
  15 Cl15           5.5455     0.0294    -5.7149 Cl      
  16 Cl16           5.5296     2.7755    -4.2302 Cl      
  17 C17           -1.1568    -0.9002     0.0087 C.3     
  18 C18           -1.4921    -1.2984    -1.4056 C.ar    
  19 C19           -0.9154    -2.4249    -1.9616 C.ar    
  20 C20           -1.2229    -2.7901    -3.2589 C.ar    
  21 C21           -2.1075    -2.0290    -4.0000 C.ar    
  22 C22           -2.6849    -0.9030    -3.4436 C.ar    
  23 C23           -2.3807    -0.5402    -2.1448 C.ar    
  24 C24           -2.4420    -2.4265    -5.4146 C.3     
  25 H25            4.1482     1.1691     0.4830 H       
  26 H26            3.8302    -0.5822     0.4770 H       
  27 H27            4.5364     2.3687    -1.5914 H       
  28 H28            4.5618    -1.9648    -3.9342 H       
  29 H29            3.7843    -1.8293    -1.6019 H       
  30 H30           -0.9237    -1.7914     0.5914 H       
  31 H31           -2.0097    -0.3879     0.4538 H       
  32 H32           -0.2243    -3.0195    -1.3827 H       
  33 H33           -0.7718    -3.6698    -3.6936 H       
  34 H34           -3.3757    -0.3081    -4.0227 H       
  35 H35           -2.8346     0.3374    -1.7089 H       
  36 H36           -3.3037    -3.0940    -5.4103 H       
  37 H37           -2.6756    -1.5352    -5.9969 H       
  38 H38           -1.5885    -2.9380    -5.8597 H       
@<TRIPOS>BOND
   1    1    2 1
   2    1    5 1
   3    2    3 am
   4    2   17 1
   5    3    4 am
   6    3    6 2
   7    4    5 am
   8    4    8 1
   9    5    7 2
  10    8    9 1
  11    8   25 1
  12    8   26 1
  13    9   10 ar
  14    9   14 ar
  15   10   11 ar
  16   10   27 1
  17   11   12 ar
  18   11   16 1
  19   12   13 ar
  20   12   15 1
  21   13   14 ar
  22   13   28 1
  23   14   29 1
  24   17   18 1
  25   17   30 1
  26   17   31 1
  27   18   19 ar
  28   18   23 ar
  29   19   20 ar
  30   19   32 1
  31   20   21 ar
  32   20   33 1
  33   21   22 ar
  34   21   24 1
  35   22   23 ar
  36   22   34 1
  37   23   35 1
  38   24   36 1
  39   24   37 1
  40   24   38 1

#	End of record

