#	Name: ASD01913926
#	Creating user name:	WinNT
#	Creation time:	15. 06. 2019 20:02

#	Modifying user name:	WinNT
#	Modification time:	15. 06. 2019 20:02

#	Program:	/corina/corina34_cracker 3.40 0067  02.08.2006

@<TRIPOS>MOLECULE
ASD01913926
  37   39    0    0    0
SMALL
NO_CHARGES


@<TRIPOS>ATOM
   1 C1            -0.0173     1.4278     0.0099 C.ar    
   2 C2             0.0021    -0.0041     0.0020 C.1     
   3 C3             0.0180    -1.1779    -0.0044 C.1     
   4 C4             0.0374    -2.6098    -0.0123 C.ar    
   5 C5            -1.1656    -3.3304    -0.0047 C.ar    
   6 C6             0.1700    -5.3026    -0.0290 C.ar    
   7 N7             1.2564    -4.5437    -0.0405 N.ar    
   8 N8             1.1960    -3.2617    -0.0324 N.ar    
   9 C9            -1.0938    -4.7113    -0.0133 C.ar    
  10 C10            1.1547     3.5252     0.0104 C.ar    
  11 C11           -1.2349     2.1134     0.0310 C.ar    
  12 C12           -0.0549     4.1972     0.0261 C.ar    
  13 N13            0.2897    -6.6910    -0.0390 N.am    
  14 C14            1.1812     2.1463     0.0023 C.ar    
  15 C15           -1.2457     3.4925     0.0390 C.ar    
  16 C16           -0.7266    -7.5602    -0.1246 C.2     
  17 O17           -0.3445    -8.8422    -0.1141 O.3     
  18 C18            1.1069    -8.9156    -0.0095 C.3     
  19 C19            1.5526    -7.4413     0.0363 C.3     
  20 C20            1.5161    -9.6452     1.2715 C.3     
  21 C21            1.6985    -9.6114    -1.2370 C.3     
  22 O22           -1.8890    -7.2154    -0.2039 O.2     
  23 H23           -2.1187    -2.8226     0.0079 H       
  24 H24           -1.9897    -5.3145    -0.0076 H       
  25 H25            2.0801     4.0818     0.0000 H       
  26 H26           -2.1651     1.5646     0.0408 H       
  27 H27           -0.0696     5.2771     0.0324 H       
  28 H28            2.1260     1.6231    -0.0095 H       
  29 H29           -2.1860     4.0237     0.0508 H       
  30 H30            2.1941    -7.2086    -0.8137 H       
  31 H31            2.0644    -7.2250     0.9741 H       
  32 H32            1.1324   -10.6652     1.2471 H       
  33 H33            2.6033    -9.6677     1.3453 H       
  34 H34            1.1040    -9.1226     2.1347 H       
  35 H35            1.4147    -9.0650    -2.1364 H       
  36 H36            2.7851    -9.6341    -1.1533 H       
  37 H37            1.3173   -10.6309    -1.2957 H       
@<TRIPOS>BOND
   1    1    2 1
   2    1   14 ar
   3    1   11 ar
   4    2    3 3
   5    3    4 1
   6    4    5 ar
   7    4    8 ar
   8    5    9 ar
   9    5   23 1
  10    6    7 ar
  11    6   13 1
  12    6    9 ar
  13    7    8 ar
  14    9   24 1
  15   10   12 ar
  16   10   14 ar
  17   10   25 1
  18   11   15 ar
  19   11   26 1
  20   12   15 ar
  21   12   27 1
  22   13   16 am
  23   13   19 1
  24   14   28 1
  25   15   29 1
  26   16   17 1
  27   16   22 2
  28   17   18 1
  29   18   19 1
  30   18   20 1
  31   18   21 1
  32   19   30 1
  33   19   31 1
  34   20   32 1
  35   20   33 1
  36   20   34 1
  37   21   35 1
  38   21   36 1
  39   21   37 1

#	End of record

