#	Name: ASD00071051
#	Creating user name:	WinNT
#	Creation time:	15. 06. 2019 18:30

#	Modifying user name:	WinNT
#	Modification time:	15. 06. 2019 18:30

#	Program:	/corina/corina34_cracker 3.40 0067  02.08.2006

@<TRIPOS>MOLECULE
ASD00071051
  49   52    0    0    0
SMALL
NO_CHARGES


@<TRIPOS>ATOM
   1 N1            -0.0539     1.2616    -0.3908 N.ar    
   2 C2            -0.0210    -0.0440    -0.2239 C.ar    
   3 C3             1.1911    -0.7479    -0.1796 C.ar    
   4 C4             2.3699    -0.0780    -0.3115 C.ar    
   5 C5             2.3279     1.3203    -0.4905 C.ar    
   6 C6             3.5049     2.0698    -0.6330 C.ar    
   7 C7             3.4233     3.4348    -0.8066 C.ar    
   8 C8             2.1794     4.0738    -0.8408 C.ar    
   9 C9             1.0255     3.3668    -0.7042 C.ar    
  10 C10            1.0717     1.9736    -0.5260 C.ar    
  11 N11           -1.2141    -0.7400    -0.0881 N.pl3   
  12 N12            4.5929     4.1865    -0.9491 N.3     
  13 C13            4.2843     5.6135    -1.1220 C.3     
  14 C14            5.5914     6.4052    -1.2142 C.3     
  15 O15            6.3814     5.8881    -2.2884 O.3     
  16 C16            6.7011     4.5009    -2.1519 C.3     
  17 C17            5.4052     3.6898    -2.0693 C.3     
  18 C18            1.1895    -2.2424     0.0139 C.3     
  19 C19            2.5971    -2.7664    -0.1100 C.ar    
  20 C20            3.3888    -2.9040     1.0206 C.ar    
  21 C21            4.6842    -3.3866     0.9035 C.ar    
  22 C22            5.1840    -3.7295    -0.3382 C.ar    
  23 C23            4.3951    -3.5919    -1.4646 C.ar    
  24 C24            3.0991    -3.1162    -1.3507 C.ar    
  25 F25            2.3274    -2.9881    -2.4522 F       
  26 O26            2.8964    -2.5660     2.2413 O.3     
  27 C27            3.7678    -2.7336     3.3614 C.3     
  28 H28            3.3124    -0.6042    -0.2795 H       
  29 H29            4.4677     1.5812    -0.6065 H       
  30 H30            2.1347     5.1442    -0.9774 H       
  31 H31            0.0736     3.8762    -0.7323 H       
  32 H32           -2.0537    -0.2573    -0.0340 H       
  33 H33           -1.2083    -1.7091    -0.0473 H       
  34 H34            3.7089     5.7531    -2.0372 H       
  35 H35            3.7044     5.9663    -0.2692 H       
  36 H36            5.3682     7.4559    -1.3995 H       
  37 H37            6.1420     6.3090    -0.2784 H       
  38 H38            7.2805     4.1742    -3.0155 H       
  39 H39            7.2839     4.3493    -1.2434 H       
  40 H40            5.6435     2.6385    -1.9080 H       
  41 H41            4.8477     3.7987    -2.9996 H       
  42 H42            0.7991    -2.4802     1.0034 H       
  43 H43            0.5608    -2.7065    -0.7460 H       
  44 H44            5.3020    -3.4939     1.7828 H       
  45 H45            6.1925    -4.1051    -0.4287 H       
  46 H46            4.7880    -3.8599    -2.4342 H       
  47 H47            4.0579    -3.7812     3.4425 H       
  48 H48            4.6579    -2.1196     3.2245 H       
  49 H49            3.2521    -2.4280     4.2718 H       
@<TRIPOS>BOND
   1    1    2 ar
   2    1   10 ar
   3    2    3 ar
   4    2   11 1
   5    3    4 ar
   6    3   18 1
   7    4    5 ar
   8    4   28 1
   9    5    6 ar
  10    5   10 ar
  11    6    7 ar
  12    6   29 1
  13    7    8 ar
  14    7   12 1
  15    8    9 ar
  16    8   30 1
  17    9   10 ar
  18    9   31 1
  19   11   32 1
  20   11   33 1
  21   12   13 1
  22   12   17 1
  23   13   14 1
  24   13   34 1
  25   13   35 1
  26   14   15 1
  27   14   36 1
  28   14   37 1
  29   15   16 1
  30   16   17 1
  31   16   38 1
  32   16   39 1
  33   17   40 1
  34   17   41 1
  35   18   19 1
  36   18   42 1
  37   18   43 1
  38   19   20 ar
  39   19   24 ar
  40   20   21 ar
  41   20   26 1
  42   21   22 ar
  43   21   44 1
  44   22   23 ar
  45   22   45 1
  46   23   24 ar
  47   23   46 1
  48   24   25 1
  49   26   27 1
  50   27   47 1
  51   27   48 1
  52   27   49 1

#	End of record

