#	Name: ASD05130043
#	Creating user name:	WinNT
#	Creation time:	15. 06. 2019 20:56

#	Modifying user name:	WinNT
#	Modification time:	15. 06. 2019 20:56

#	Program:	/corina/corina34_cracker 3.40 0067  02.08.2006

@<TRIPOS>MOLECULE
ASD05130043
  57   61    0    0    0
SMALL
NO_CHARGES


@<TRIPOS>ATOM
   1 N1            -0.0685     1.1746    -0.6212 N.am    
   2 C2            -0.0806    -0.1709    -0.6971 C.2     
   3 O3             0.7524    -0.7496    -1.3682 O.2     
   4 N4            -1.0158    -0.8752    -0.0294 N.am    
   5 C5            -1.0851    -2.2672    -0.1800 C.ar    
   6 C6            -2.3193    -2.9095    -0.1497 C.ar    
   7 C7            -2.3923    -4.2833    -0.2974 C.ar    
   8 C8            -1.2393    -5.0248    -0.4764 C.ar    
   9 C9             0.0024    -4.3870    -0.5084 C.ar    
  10 C10            0.0743    -3.0021    -0.3646 C.ar    
  11 F11           -1.3138    -6.3661    -0.6200 F       
  12 F12           -3.4491    -2.1897     0.0250 F       
  13 N13            2.7024    -6.4320    -2.1967 N.am    
  14 C14            1.5766    -5.7125    -2.0215 C.2     
  15 C15            1.2398    -5.1792    -0.6996 C.2     
  16 C16            2.0754    -5.4169     0.3573 C.2     
  17 C17            3.2513    -6.1760     0.1482 C.ar    
  18 C18            4.1346    -6.4438     1.2012 C.ar    
  19 N19            5.2231    -7.1510     0.9899 N.ar    
  20 C20            5.5309    -7.6360    -0.2083 C.ar    
  21 C21            4.7109    -7.4180    -1.3064 C.ar    
  22 C22            3.5475    -6.6762    -1.1387 C.ar    
  23 O23            0.8372    -5.5032    -2.9667 O.2     
  24 N24            6.6951    -8.3743    -0.3647 N.pl3   
  25 C25            7.0481    -8.9156    -1.6795 C.3     
  26 C26            3.0252    -6.9652    -3.5225 C.3     
  27 C27            3.8616    -5.9423    -4.2938 C.3     
  28 C28            2.1121     3.8451    -1.9469 C.ar    
  29 C29            0.9649     3.3572    -1.3149 C.ar    
  30 C30            0.9769     1.9037    -1.2178 C.2     
  31 C31            2.0468     1.3232    -1.7336 C.2     
  32 S32            3.1588     2.5049    -2.3965 S.3     
  33 C33           -0.0106     4.2749    -0.8716 C.ar    
  34 C34            0.1648     5.6121    -1.0572 C.ar    
  35 C35            1.3050     6.0944    -1.6852 C.ar    
  36 C36            2.2740     5.2229    -2.1233 C.ar    
  37 H37           -0.7825     1.6407    -0.1587 H       
  38 H38           -1.6409    -0.4189     0.5553 H       
  39 H39           -3.3522    -4.7776    -0.2725 H       
  40 H40            1.0322    -2.5040    -0.3927 H       
  41 H41            1.8410    -5.0300     1.3380 H       
  42 H42            3.9212    -6.0678     2.1909 H       
  43 H43            4.9727    -7.8174    -2.2751 H       
  44 H44            7.2752    -8.5321     0.3964 H       
  45 H45            6.2613    -9.5897    -2.0181 H       
  46 H46            7.1573    -8.0977    -2.3918 H       
  47 H47            7.9884    -9.4621    -1.6069 H       
  48 H48            3.5916    -7.8901    -3.4141 H       
  49 H49            2.1029    -7.1657    -4.0678 H       
  50 H50            4.1018    -6.3390    -5.2802 H       
  51 H51            3.2952    -5.0173    -4.4021 H       
  52 H52            4.7839    -5.7418    -3.7484 H       
  53 H53            2.2146     0.2564    -1.7447 H       
  54 H54           -0.9029     3.9140    -0.3817 H       
  55 H55           -0.5900     6.3037    -0.7132 H       
  56 H56            1.4330     7.1574    -1.8268 H       
  57 H57            3.1595     5.6031    -2.6110 H       
@<TRIPOS>BOND
   1    1    2 am
   2    1   30 1
   3    1   37 1
   4    2    3 2
   5    2    4 am
   6    4    5 1
   7    4   38 1
   8    5    6 ar
   9    5   10 ar
  10    6    7 ar
  11    6   12 1
  12    7    8 ar
  13    7   39 1
  14    8    9 ar
  15    8   11 1
  16    9   10 ar
  17    9   15 1
  18   10   40 1
  19   13   14 am
  20   13   22 1
  21   13   26 1
  22   14   15 1
  23   14   23 2
  24   15   16 2
  25   16   17 1
  26   16   41 1
  27   17   18 ar
  28   17   22 ar
  29   18   19 ar
  30   18   42 1
  31   19   20 ar
  32   20   21 ar
  33   20   24 1
  34   21   22 ar
  35   21   43 1
  36   24   25 1
  37   24   44 1
  38   25   45 1
  39   25   46 1
  40   25   47 1
  41   26   27 1
  42   26   48 1
  43   26   49 1
  44   27   50 1
  45   27   51 1
  46   27   52 1
  47   28   29 ar
  48   28   32 1
  49   28   36 ar
  50   29   30 1
  51   29   33 ar
  52   30   31 2
  53   31   32 1
  54   31   53 1
  55   33   34 ar
  56   33   54 1
  57   34   35 ar
  58   34   55 1
  59   35   36 ar
  60   35   56 1
  61   36   57 1

#	End of record

