#	Name: ASD01940114
#	Creating user name:	WinNT
#	Creation time:	15. 06. 2019 20:11

#	Modifying user name:	WinNT
#	Modification time:	15. 06. 2019 20:11

#	Program:	/corina/corina34_cracker 3.40 0067  02.08.2006

@<TRIPOS>MOLECULE
ASD01940114
  27   26    0    0    0
SMALL
NO_CHARGES


@<TRIPOS>ATOM
   1 C1            -0.0187     1.5258     0.0104 C.3     
   2 C2             0.0021    -0.0041     0.0020 C.3     
   3 C3            -1.4333    -0.5336     0.0129 C.3     
   4 S4             1.6831     2.1537    -0.0024 S.o2    
   5 O5             2.3325     1.8596     1.2268 O.2     
   6 O6             2.3088     1.8728    -1.2470 O.2     
   7 O7             1.5294     3.6678     0.0072 O.3     
   8 Cl8           -1.4089    -2.3365     0.0030 Cl      
   9 C9             1.1466     4.2051     1.2747 C.3     
  10 C10            1.0225     5.7263     1.1674 C.3     
  11 C11            0.6126     6.3016     2.5246 C.3     
  12 C12            0.4885     7.8228     2.4172 C.3     
  13 H13           -0.5459     1.8868    -0.8726 H       
  14 H14           -0.5289     1.8773     0.9072 H       
  15 H15            0.5123    -0.3556    -0.8948 H       
  16 H16            0.5293    -0.3651     0.8851 H       
  17 H17           -1.9435    -0.1821     0.9097 H       
  18 H18           -1.9605    -0.1726    -0.8702 H       
  19 H19            0.1874     3.7826     1.5738 H       
  20 H20            1.9022     3.9539     2.0191 H       
  21 H21            1.9817     6.1489     0.8683 H       
  22 H22            0.2668     5.9776     0.4231 H       
  23 H23           -0.3466     5.8790     2.8236 H       
  24 H24            1.3682     6.0503     3.2689 H       
  25 H25            1.4477     8.2454     2.1182 H       
  26 H26           -0.2671     8.0741     1.6729 H       
  27 H27            0.1965     8.2326     3.3841 H       
@<TRIPOS>BOND
   1    1    2 1
   2    1    4 1
   3    1   13 1
   4    1   14 1
   5    2    3 1
   6    2   15 1
   7    2   16 1
   8    3    8 1
   9    3   17 1
  10    3   18 1
  11    4    5 2
  12    4    6 2
  13    4    7 1
  14    7    9 1
  15    9   10 1
  16    9   19 1
  17    9   20 1
  18   10   11 1
  19   10   21 1
  20   10   22 1
  21   11   12 1
  22   11   23 1
  23   11   24 1
  24   12   25 1
  25   12   26 1
  26   12   27 1

#	End of record

