#	Name: ASD05430148
#	Creating user name:	WinNT
#	Creation time:	15. 06. 2019 20:59

#	Modifying user name:	WinNT
#	Modification time:	15. 06. 2019 20:59

#	Program:	/corina/corina34_cracker 3.40 0067  02.08.2006

@<TRIPOS>MOLECULE
ASD05430148
  72   77    0    0    0
SMALL
NO_CHARGES


@<TRIPOS>ATOM
   1 C1            -0.0088     1.6233     0.1900 C.ar    
   2 C2            -0.1588     0.2434     0.0776 C.ar    
   3 C3             0.9626    -0.5720     0.0448 C.ar    
   4 C4             2.2246    -0.0145     0.1234 C.ar    
   5 C5             2.3731     1.3558     0.2355 C.ar    
   6 C6             1.2603     2.1748     0.2684 C.ar    
   7 C7             5.8119     2.4789    -0.9726 C.3     
   8 C8             4.3496     2.0672    -1.0824 C.3     
   9 C9             3.7520     1.9576     0.3218 C.3     
  10 C10            6.2688     3.3707    -2.1124 C.3     
  11 C11            5.4747     3.1384    -3.3965 C.3     
  12 N12            4.0730     3.4596    -3.1153 N.pl3   
  13 C13            3.5617     3.0745    -1.8776 C.2     
  14 C14            2.3115     3.1274    -4.7483 C.ar    
  15 C15            2.0504     3.2196    -6.1028 C.ar    
  16 C16            1.2258     2.2933    -6.7127 C.ar    
  17 C17            0.6610     1.2728    -5.9667 C.ar    
  18 C18            0.9232     1.1815    -4.6102 C.ar    
  19 C19            1.7481     2.1089    -4.0024 C.ar    
  20 N20           -1.4417    -0.3207    -0.0017 N.pl3   
  21 C21           -1.8763    -1.2285    -0.9320 C.2     
  22 C22           -3.1629    -1.5002    -0.6407 C.2     
  23 N23           -3.5089    -0.7806     0.4369 N.2     
  24 C24           -2.4846    -0.0746     0.8324 C.2     
  25 C25           -4.0587    -2.4486    -1.3951 C.3     
  26 N26            2.4701     3.5852    -1.4340 N.2     
  27 C27           -0.8809     3.8204     0.4476 C.3     
  28 O28           -1.1043     2.4279     0.2171 O.3     
  29 C29            3.2158     4.1345    -4.0857 C.3     
  30 C30            2.3694     5.1794    -3.3476 C.3     
  31 N31            1.7838     4.5701    -2.1512 N.pl3   
  32 F32           -0.1456     0.3670    -6.5617 F       
  33 C33            3.2553     6.3581    -2.9390 C.3     
  34 O34            2.4467     7.3818    -2.3557 O.3     
  35 C35            6.1759     4.8505    -1.7020 C.3     
  36 O36            7.5149     5.3753    -1.6969 O.3     
  37 C37            8.2805     4.5858    -2.6328 C.3     
  38 C38            7.7721     3.1414    -2.3896 C.3     
  39 H39            0.8495    -1.6426    -0.0420 H       
  40 H40            3.0970    -0.6506     0.0977 H       
  41 H41            1.3796     3.2447     0.3556 H       
  42 H42            5.9562     3.0109    -0.0323 H       
  43 H43            6.4288     1.5804    -0.9621 H       
  44 H44            4.2872     1.0965    -1.5743 H       
  45 H45            3.6879     2.9502     0.7679 H       
  46 H46            4.3877     1.3224     0.9387 H       
  47 H47            5.8515     3.7878    -4.1868 H       
  48 H48            5.5612     2.0955    -3.7012 H       
  49 H49            2.4908     4.0159    -6.6844 H       
  50 H50            1.0217     2.3657    -7.7708 H       
  51 H51            0.4832     0.3859    -4.0273 H       
  52 H52            1.9527     2.0379    -2.9444 H       
  53 H53           -1.2982    -1.6456    -1.7434 H       
  54 H54           -2.4711     0.5981     1.6772 H       
  55 H55           -3.9738    -3.4471    -0.9663 H       
  56 H56           -5.0916    -2.1083    -1.3220 H       
  57 H57           -3.7585    -2.4763    -2.4426 H       
  58 H58           -1.8392     4.3334     0.5297 H       
  59 H59           -0.3191     3.9500     1.3726 H       
  60 H60           -0.3142     4.2400    -0.3836 H       
  61 H61            3.8319     4.6275    -4.8376 H       
  62 H62            1.5733     5.5319    -4.0033 H       
  63 H63            0.9059     4.8540    -1.8519 H       
  64 H64            3.9954     6.0218    -2.2129 H       
  65 H65            3.7629     6.7532    -3.8189 H       
  66 H66            2.9434     8.1617    -2.0724 H       
  67 H67            5.5660     5.3973    -2.4211 H       
  68 H68            5.7416     4.9326    -0.7056 H       
  69 H69            8.0744     4.8979    -3.6567 H       
  70 H70            9.3460     4.6593    -2.4153 H       
  71 H71            8.2638     2.6963    -1.5247 H       
  72 H72            7.9144     2.5243    -3.2767 H       
@<TRIPOS>BOND
   1    1    2 ar
   2    1    6 ar
   3    1   28 1
   4    2    3 ar
   5    2   20 1
   6    3    4 ar
   7    3   39 1
   8    4    5 ar
   9    4   40 1
  10    5    6 ar
  11    5    9 1
  12    6   41 1
  13    7    8 1
  14    7   10 1
  15    7   42 1
  16    7   43 1
  17    8    9 1
  18    8   13 1
  19    8   44 1
  20    9   45 1
  21    9   46 1
  22   10   11 1
  23   10   35 1
  24   10   38 1
  25   11   12 1
  26   11   47 1
  27   11   48 1
  28   12   13 1
  29   12   29 1
  30   13   26 2
  31   14   15 ar
  32   14   19 ar
  33   14   29 1
  34   15   16 ar
  35   15   49 1
  36   16   17 ar
  37   16   50 1
  38   17   18 ar
  39   17   32 1
  40   18   19 ar
  41   18   51 1
  42   19   52 1
  43   20   21 1
  44   20   24 1
  45   21   22 2
  46   21   53 1
  47   22   23 1
  48   22   25 1
  49   23   24 2
  50   24   54 1
  51   25   55 1
  52   25   56 1
  53   25   57 1
  54   26   31 1
  55   27   28 1
  56   27   58 1
  57   27   59 1
  58   27   60 1
  59   29   30 1
  60   29   61 1
  61   30   31 1
  62   30   33 1
  63   30   62 1
  64   31   63 1
  65   33   34 1
  66   33   64 1
  67   33   65 1
  68   34   66 1
  69   35   36 1
  70   35   67 1
  71   35   68 1
  72   36   37 1
  73   37   38 1
  74   37   69 1
  75   37   70 1
  76   38   71 1
  77   38   72 1

#	End of record

