#	Name: ASD01410589
#	Creating user name:	WinNT
#	Creation time:	15. 06. 2019 19:18

#	Modifying user name:	WinNT
#	Modification time:	15. 06. 2019 19:18

#	Program:	/corina/corina34_cracker 3.40 0067  02.08.2006

@<TRIPOS>MOLECULE
ASD01410589
  68   71    0    0    0
SMALL
NO_CHARGES


@<TRIPOS>ATOM
   1 C1            -0.0359    -0.6759     2.4241 C.ar    
   2 C2             0.6738    -1.1533     3.5171 C.ar    
   3 C3             2.0323    -1.3712     3.3977 C.ar    
   4 N4             2.6583    -1.1314     2.2615 N.ar    
   5 C5             2.0165    -0.6759     1.1980 C.ar    
   6 C6             0.6496    -0.4341     1.2462 C.ar    
   7 O7             2.6999    -0.4430     0.0494 O.3     
   8 C8             4.0473    -0.6249     0.0603 C.ar    
   9 C9             4.5731    -1.9103     0.0079 C.ar    
  10 C10            5.9393    -2.1062     0.0184 C.ar    
  11 C11            6.7988    -1.0183     0.0820 C.ar    
  12 C12            6.2743     0.2822     0.1350 C.ar    
  13 C13            4.8901     0.4701     0.1177 C.ar    
  14 N14            8.1786    -1.2168     0.0934 N.am    
  15 C15            8.8574    -1.2985    -1.0680 C.2     
  16 C16            8.8908    -1.3368     1.3681 C.3     
  17 O17           10.0451    -1.5441    -1.0604 O.2     
  18 C18            8.1406    -1.0847    -2.3763 C.3     
  19 C19            8.8109    -1.9215    -3.4678 C.3     
  20 C20            8.0832    -1.7044    -4.7960 C.3     
  21 C21            8.1474    -0.2240    -5.1767 C.3     
  22 C22            7.4771     0.6128    -4.0852 C.3     
  23 C23            8.2048     0.3958    -2.7570 C.3     
  24 C24            7.4197    -0.0069    -6.5050 C.3     
  25 C25            8.9335    -2.8062     1.7922 C.3     
  26 O26            9.7115    -3.5507     0.8529 O.3     
  27 C27            9.8502    -4.8826     1.0847 C.ar    
  28 C28           10.5924    -5.6661     0.2131 C.ar    
  29 C29           10.7322    -7.0196     0.4512 C.ar    
  30 C30            9.2544    -5.4600     2.1967 C.ar    
  31 C31            9.3972    -6.8140     2.4304 C.ar    
  32 C32           10.1327    -7.5937     1.5570 C.ar    
  33 C33           -0.0773     0.0847     0.0323 C.3     
  34 F34           -1.4340     0.2448     0.3342 F       
  35 F35            0.4652     1.3179    -0.3445 F       
  36 F36            0.0618    -0.8271    -1.0196 F       
  37 C37            7.1790     1.4438     0.2032 C.2     
  38 O38            8.3825     1.2768     0.2135 O.2     
  39 O39            6.6714     2.6911     0.2541 O.3     
  40 H40           -1.0997    -0.5012     2.4899 H       
  41 H41            0.1692    -1.3520     4.4510 H       
  42 H42            2.5893    -1.7423     4.2453 H       
  43 H43            3.9091    -2.7606    -0.0409 H       
  44 H44            6.3404    -3.1081    -0.0225 H       
  45 H45            4.4790     1.4680     0.1583 H       
  46 H46            9.9080    -0.9623     1.2526 H       
  47 H47            8.3732    -0.7536     2.1297 H       
  48 H48            7.0989    -1.3886    -2.2737 H       
  49 H49            9.8527    -1.6176    -3.5704 H       
  50 H50            8.7652    -2.9762    -3.1966 H       
  51 H51            8.5607    -2.3006    -5.5736 H       
  52 H52            7.0415    -2.0084    -4.6935 H       
  53 H53            9.1891     0.0800    -5.2793 H       
  54 H54            7.5228     1.6676    -4.3565 H       
  55 H55            6.4354     0.3089    -3.9827 H       
  56 H56            7.7273     0.9919    -1.9794 H       
  57 H57            9.2466     0.6997    -2.8596 H       
  58 H58            6.3780    -0.3108    -6.4024 H       
  59 H59            7.4654     1.0478    -6.7762 H       
  60 H60            7.8972    -0.6030    -7.2826 H       
  61 H61            9.3841    -2.8859     2.7814 H       
  62 H62            7.9196    -3.2054     1.8216 H       
  63 H63           11.0603    -5.2182    -0.6512 H       
  64 H64           11.3100    -7.6300    -0.2271 H       
  65 H65            8.6798    -4.8513     2.8791 H       
  66 H66            8.9336    -7.2639     3.2959 H       
  67 H67           10.2426    -8.6522     1.7411 H       
  68 H68            7.3041     3.4211     0.2979 H       
@<TRIPOS>BOND
   1    1    2 ar
   2    1    6 ar
   3    1   40 1
   4    2    3 ar
   5    2   41 1
   6    3    4 ar
   7    3   42 1
   8    4    5 ar
   9    5    6 ar
  10    5    7 1
  11    6   33 1
  12    7    8 1
  13    8    9 ar
  14    8   13 ar
  15    9   10 ar
  16    9   43 1
  17   10   11 ar
  18   10   44 1
  19   11   12 ar
  20   11   14 1
  21   12   13 ar
  22   12   37 1
  23   13   45 1
  24   14   15 am
  25   14   16 1
  26   15   17 2
  27   15   18 1
  28   16   25 1
  29   16   46 1
  30   16   47 1
  31   18   19 1
  32   18   23 1
  33   18   48 1
  34   19   20 1
  35   19   49 1
  36   19   50 1
  37   20   21 1
  38   20   51 1
  39   20   52 1
  40   21   22 1
  41   21   24 1
  42   21   53 1
  43   22   23 1
  44   22   54 1
  45   22   55 1
  46   23   56 1
  47   23   57 1
  48   24   58 1
  49   24   59 1
  50   24   60 1
  51   25   26 1
  52   25   61 1
  53   25   62 1
  54   26   27 1
  55   27   28 ar
  56   27   30 ar
  57   28   29 ar
  58   28   63 1
  59   29   32 ar
  60   29   64 1
  61   30   31 ar
  62   30   65 1
  63   31   32 ar
  64   31   66 1
  65   32   67 1
  66   33   34 1
  67   33   35 1
  68   33   36 1
  69   37   38 2
  70   37   39 1
  71   39   68 1

#	End of record

