#	Name: ASD01150849
#	Creating user name:	WinNT
#	Creation time:	15. 06. 2019 19:05

#	Modifying user name:	WinNT
#	Modification time:	15. 06. 2019 19:05

#	Program:	/corina/corina34_cracker 3.40 0067  02.08.2006

@<TRIPOS>MOLECULE
ASD01150849
  46   48    0    0    0
SMALL
NO_CHARGES


@<TRIPOS>ATOM
   1 C1            -0.0169     1.3919     0.0097 C.ar    
   2 C2             0.0021    -0.0041     0.0020 C.ar    
   3 C3             1.2238    -0.6803    -0.0133 C.ar    
   4 C4             2.4042     0.0341    -0.0207 C.ar    
   5 C5             2.3782     1.4203    -0.0130 C.ar    
   6 C6             1.1694     2.0954     0.0021 C.ar    
   7 Cl7            3.8671     2.3130    -0.0219 Cl      
   8 C8            -1.2655    -0.7629     0.0105 C.2     
   9 N9            -1.2443    -2.1105     0.0031 N.am    
  10 O10           -2.3277    -0.1719     0.0243 O.2     
  11 C11           -2.4368    -2.8245     0.0111 C.2     
  12 N12           -3.6661    -2.3033     0.0256 N.2     
  13 C13           -4.5645    -3.2668     0.0291 C.2     
  14 N14           -3.9342    -4.4697     0.0166 N.pl3   
  15 C15           -2.5632    -4.2080    -0.0007 C.2     
  16 S16           -6.3106    -3.0317     0.0476 S.3     
  17 C17           -6.3841    -1.2232     0.0576 C.3     
  18 C18           -4.5712    -5.7890     0.0160 C.3     
  19 C19           -1.5192    -5.1547    -0.0184 C.2     
  20 O20           -1.8047    -6.4748    -0.0199 O.3     
  21 O21           -0.3598    -4.7825    -0.0324 O.2     
  22 C22           -0.6975    -7.3780    -0.0383 C.3     
  23 C23           -1.2141    -8.8181    -0.0371 C.3     
  24 Cl24           3.9243    -0.8041    -0.0392 Cl      
  25 C25           -4.8030    -6.2342    -1.4049 C.2     
  26 S26           -6.2529    -5.9085    -2.3457 S.3     
  27 C27           -5.5854    -6.7677    -3.7277 C.2     
  28 C28           -4.3715    -7.2294    -3.4235 C.2     
  29 C29           -3.9377    -6.9307    -2.1434 C.2     
  30 H30           -0.9589     1.9201     0.0170 H       
  31 H31            1.2446    -1.7601    -0.0189 H       
  32 H32            1.1555     3.1753     0.0077 H       
  33 H33           -0.3967    -2.5821    -0.0079 H       
  34 H34           -5.8767    -0.8439     0.9446 H       
  35 H35           -5.8943    -0.8347    -0.8352 H       
  36 H36           -7.4256    -0.9019     0.0696 H       
  37 H37           -3.9229    -6.5057     0.5202 H       
  38 H38           -5.5257    -5.7318     0.5392 H       
  39 H39           -0.1031    -7.2059    -0.9356 H       
  40 H40           -0.0793    -7.2130     0.8442 H       
  41 H41           -1.8085    -8.9902     0.8602 H       
  42 H42           -1.8322    -8.9831    -0.9196 H       
  43 H43           -0.3695    -9.5071    -0.0511 H       
  44 H44           -6.0825    -6.9013    -4.6771 H       
  45 H45           -3.7710    -7.7904    -4.1243 H       
  46 H46           -2.9745    -7.2439    -1.7686 H       
@<TRIPOS>BOND
   1    1    2 ar
   2    1    6 ar
   3    1   30 1
   4    2    3 ar
   5    2    8 1
   6    3    4 ar
   7    3   31 1
   8    4    5 ar
   9    4   24 1
  10    5    6 ar
  11    5    7 1
  12    6   32 1
  13    8    9 am
  14    8   10 2
  15    9   11 1
  16    9   33 1
  17   11   12 1
  18   11   15 2
  19   12   13 2
  20   13   14 1
  21   13   16 1
  22   14   15 1
  23   14   18 1
  24   15   19 1
  25   16   17 1
  26   17   34 1
  27   17   35 1
  28   17   36 1
  29   18   25 1
  30   18   37 1
  31   18   38 1
  32   19   20 1
  33   19   21 2
  34   20   22 1
  35   22   23 1
  36   22   39 1
  37   22   40 1
  38   23   41 1
  39   23   42 1
  40   23   43 1
  41   25   26 1
  42   25   29 2
  43   26   27 1
  44   27   28 2
  45   27   44 1
  46   28   29 1
  47   28   45 1
  48   29   46 1

#	End of record

