#	Name: ASD03080093
#	Creating user name:	WinNT
#	Creation time:	15. 06. 2019 20:26

#	Modifying user name:	WinNT
#	Modification time:	15. 06. 2019 20:26

#	Program:	/corina/corina34_cracker 3.40 0067  02.08.2006

@<TRIPOS>MOLECULE
ASD03080093
  28   30    0    0    0
SMALL
NO_CHARGES


@<TRIPOS>ATOM
   1 O1             0.8873     1.6192    -0.7595 O.2     
   2 N2            -0.0128     1.2186    -0.0433 N.pl3   
   3 O3             0.1525     0.2284     0.6463 O.2     
   4 C4            -1.3055     1.9388    -0.0064 C.ar    
   5 C5            -2.4898     1.2390    -0.1085 C.ar    
   6 C6            -3.6991     1.9108    -0.0747 C.ar    
   7 C7            -3.7291     3.2870     0.0620 C.ar    
   8 C8            -2.5517     3.9989     0.1655 C.ar    
   9 C9            -1.3289     3.3270     0.1375 C.ar    
  10 C10           -0.0635     4.0834     0.2479 C.2     
  11 O11            1.1705     3.5663     0.3517 O.3     
  12 N12            1.9879     4.4593     0.4243 N.2     
  13 C13            1.3940     5.6242     0.3773 C.2     
  14 N14            0.0693     5.3964     0.2577 N.2     
  15 C15            2.0558     6.9515     0.4381 C.ar    
  16 C16            3.4446     7.0475     0.5564 C.ar    
  17 C17            4.0136     8.3087     0.6091 C.ar    
  18 C18            3.1968     9.4224     0.5435 C.ar    
  19 N19            1.8880     9.3001     0.4323 N.ar    
  20 C20            1.3026     8.1216     0.3722 C.ar    
  21 H21           -2.4731     0.1644    -0.2154 H       
  22 H22           -4.6235     1.3582    -0.1557 H       
  23 H23           -4.6763     3.8054     0.0873 H       
  24 H24           -2.5765     5.0734     0.2718 H       
  25 H25            4.0587     6.1604     0.6059 H       
  26 H26            5.0838     8.4212     0.7008 H       
  27 H27            3.6371    10.4077     0.5843 H       
  28 H28            0.2282     8.0619     0.2809 H       
@<TRIPOS>BOND
   1    1    2 2
   2    2    3 2
   3    2    4 1
   4    4    5 ar
   5    4    9 ar
   6    5    6 ar
   7    5   21 1
   8    6    7 ar
   9    6   22 1
  10    7    8 ar
  11    7   23 1
  12    8    9 ar
  13    8   24 1
  14    9   10 1
  15   10   11 1
  16   10   14 2
  17   11   12 1
  18   12   13 2
  19   13   14 1
  20   13   15 1
  21   15   16 ar
  22   15   20 ar
  23   16   17 ar
  24   16   25 1
  25   17   18 ar
  26   17   26 1
  27   18   19 ar
  28   18   27 1
  29   19   20 ar
  30   20   28 1

#	End of record

