#	Name: ASD06152005
#	Creating user name:	WinNT
#	Creation time:	15. 06. 2019 21:05

#	Modifying user name:	WinNT
#	Modification time:	15. 06. 2019 21:05

#	Program:	/corina/corina34_cracker 3.40 0067  02.08.2006

@<TRIPOS>MOLECULE
ASD06152005
  48   50    0    0    0
SMALL
NO_CHARGES


@<TRIPOS>ATOM
   1 C1            -0.0189     1.5439     0.0105 C.3     
   2 C2             0.0021    -0.0041     0.0020 C.3     
   3 O3             1.2971    -0.2677    -0.5757 O.3     
   4 C4             2.0803     0.8042    -0.3334 C.2     
   5 N5             1.4203     1.8706    -0.0015 N.2     
   6 C6             3.5545     0.7669    -0.4371 C.ar    
   7 C7             4.3039     1.9146    -0.1721 C.ar    
   8 C8             5.6777     1.8759    -0.2693 C.ar    
   9 C9             6.3173     0.6966    -0.6306 C.ar    
  10 C10            5.5747    -0.4474    -0.8956 C.ar    
  11 C11            4.2010    -0.4177    -0.7948 C.ar    
  12 O12            7.6712     0.6622    -0.7255 O.3     
  13 C13            8.2638    -0.5826    -1.1017 C.3     
  14 C14            9.7850    -0.4276    -1.1555 C.3     
  15 C15           10.4194    -1.7604    -1.5583 C.3     
  16 C16           11.9406    -1.6054    -1.6122 C.3     
  17 C17           12.5750    -2.9382    -2.0150 C.3     
  18 C18           14.0962    -2.7832    -2.0688 C.3     
  19 C19           14.7211    -4.0959    -2.4655 C.2     
  20 C20           14.9914    -4.5179    -3.7239 C.2     
  21 C21           15.5656    -5.7966    -3.5396 C.2     
  22 N22           15.5844    -6.0093    -2.2555 N.2     
  23 O23           15.1244    -5.0740    -1.6425 O.3     
  24 C24           16.0577    -6.7290    -4.6164 C.3     
  25 H25           -0.5135     1.9314    -0.8802 H       
  26 H26           -0.4963     1.9218     0.9146 H       
  27 H27           -0.0631    -0.4020     1.0147 H       
  28 H28           -0.7950    -0.4029    -0.6255 H       
  29 H29            3.8074     2.8317     0.1086 H       
  30 H30            6.2581     2.7634    -0.0647 H       
  31 H31            6.0753    -1.3621    -1.1770 H       
  32 H32            3.6244    -1.3074    -1.0006 H       
  33 H33            8.0020    -1.3458    -0.3688 H       
  34 H34            7.8938    -0.8792    -2.0831 H       
  35 H35           10.0467     0.3356    -1.8884 H       
  36 H36           10.1549    -0.1310    -0.1741 H       
  37 H37           10.1576    -2.5236    -0.8255 H       
  38 H38           10.0494    -2.0570    -2.5398 H       
  39 H39           12.2023    -0.8422    -2.3450 H       
  40 H40           12.3105    -1.3088    -0.6307 H       
  41 H41           12.3132    -3.7014    -1.2821 H       
  42 H42           12.2050    -3.2348    -2.9964 H       
  43 H43           14.3580    -2.0200    -2.8016 H       
  44 H44           14.4662    -2.4866    -1.0873 H       
  45 H45           14.8102    -3.9979    -4.6530 H       
  46 H46           17.1094    -6.5267    -4.8195 H       
  47 H47           15.9439    -7.7607    -4.2836 H       
  48 H48           15.4759    -6.5740    -5.5250 H       
@<TRIPOS>BOND
   1    1    2 1
   2    1    5 1
   3    1   25 1
   4    1   26 1
   5    2    3 1
   6    2   27 1
   7    2   28 1
   8    3    4 1
   9    4    5 2
  10    4    6 1
  11    6    7 ar
  12    6   11 ar
  13    7    8 ar
  14    7   29 1
  15    8    9 ar
  16    8   30 1
  17    9   10 ar
  18    9   12 1
  19   10   11 ar
  20   10   31 1
  21   11   32 1
  22   12   13 1
  23   13   14 1
  24   13   33 1
  25   13   34 1
  26   14   15 1
  27   14   35 1
  28   14   36 1
  29   15   16 1
  30   15   37 1
  31   15   38 1
  32   16   17 1
  33   16   39 1
  34   16   40 1
  35   17   18 1
  36   17   41 1
  37   17   42 1
  38   18   19 1
  39   18   43 1
  40   18   44 1
  41   19   20 2
  42   19   23 1
  43   20   21 1
  44   20   45 1
  45   21   22 2
  46   21   24 1
  47   22   23 1
  48   24   46 1
  49   24   47 1
  50   24   48 1

#	End of record

