#	Name: ASD03731331
#	Creating user name:	WinNT
#	Creation time:	15. 06. 2019 20:45

#	Modifying user name:	WinNT
#	Modification time:	15. 06. 2019 20:45

#	Program:	/corina/corina34_cracker 3.40 0067  02.08.2006

@<TRIPOS>MOLECULE
ASD03731331
  59   65    0    0    0
SMALL
NO_CHARGES


@<TRIPOS>ATOM
   1 C1            -0.0183     1.4732     0.0191 C.2     
   2 C2             0.0010    -0.0045    -0.0105 C.ar    
   3 C3             1.2171    -0.6897    -0.0165 C.ar    
   4 C4             1.2281    -2.0689    -0.0443 C.ar    
   5 C5             0.0372    -2.7730    -0.0665 C.ar    
   6 C6            -1.1717    -2.1000    -0.0611 C.ar    
   7 C7            -1.1968    -0.7211    -0.0267 C.ar    
   8 O8             1.0264     2.0945     0.0383 O.2     
   9 N9            -1.1942     2.1319     0.0193 N.am    
  10 C10            0.0569    -4.2795    -0.0972 C.3     
  11 O11           -2.1603    -1.6263     6.2064 O.3     
  12 C12           -2.4108    -1.7326     7.6202 C.3     
  13 O13           -2.9127    -3.0727     7.7791 O.3     
  14 C14           -2.3710    -3.7905     6.7514 C.ar    
  15 C15           -1.9094    -2.9006     5.7842 C.ar    
  16 C16           -2.2312    -5.1534     6.5604 C.ar    
  17 C17           -1.6326    -5.6456     5.4045 C.ar    
  18 C18           -1.1829    -4.7470     4.4417 C.ar    
  19 C19           -1.3153    -3.3874     4.6321 C.ar    
  20 O20           -1.3846    -6.9340     5.0319 O.3     
  21 C21           -0.6193    -5.5716     3.3155 C.3     
  22 C22           -1.1500    -6.9810     3.6113 C.3     
  23 N23            0.0543    -4.7960     1.2737 N.am    
  24 C24           -1.0654    -5.0762     1.9701 C.2     
  25 C25            0.8797    -5.5351     3.2759 C.ar    
  26 C26            1.8636    -5.8607     4.1826 C.ar    
  27 C27            3.1964    -5.7148     3.8411 C.ar    
  28 C28            3.5378    -5.2406     2.5876 C.ar    
  29 C29            2.5559    -4.9122     1.6763 C.ar    
  30 C30            1.2118    -5.0562     2.0112 C.ar    
  31 O31           -2.2089    -4.9528     1.5852 O.2     
  32 C32           -1.2149     3.5267     0.1326 C.ar    
  33 C33           -2.3324     4.1667     0.6587 C.ar    
  34 C34           -2.3498     5.5446     0.7698 C.ar    
  35 C35           -1.2579     6.2869     0.3583 C.ar    
  36 C36           -0.1441     5.6530    -0.1657 C.ar    
  37 C37           -0.1185     4.2737    -0.2742 C.ar    
  38 F38            0.9207     6.3814    -0.5668 F       
  39 F39           -3.3999     3.4424     1.0602 F       
  40 H40            2.1474    -0.1413     0.0001 H       
  41 H41            2.1683    -2.6003    -0.0490 H       
  42 H42           -2.0977    -2.6555    -0.0789 H       
  43 H43           -2.1412    -0.1971    -0.0177 H       
  44 H44           -2.0261     1.6392    -0.0591 H       
  45 H45           -0.8248    -4.6438    -0.6244 H       
  46 H46            0.9549    -4.6207    -0.6123 H       
  47 H47           -1.4873    -1.6002     8.1838 H       
  48 H48           -3.1589    -1.0039     7.9324 H       
  49 H49           -2.5891    -5.8400     7.3132 H       
  50 H50           -0.9549    -2.7007     3.8804 H       
  51 H51           -0.4022    -7.7354     3.3671 H       
  52 H52           -2.0788    -7.1660     3.0715 H       
  53 H53            1.5947    -6.2306     5.1610 H       
  54 H54            3.9683    -5.9709     4.5517 H       
  55 H55            4.5782    -5.1266     2.3211 H       
  56 H56            2.8304    -4.5420     0.6995 H       
  57 H57           -3.2172     6.0420     1.1782 H       
  58 H58           -1.2742     7.3633     0.4455 H       
  59 H59            0.7523     3.7794    -0.6789 H       
@<TRIPOS>BOND
   1    1    2 1
   2    1    8 2
   3    1    9 am
   4    2    3 ar
   5    2    7 ar
   6    3    4 ar
   7    3   40 1
   8    4    5 ar
   9    4   41 1
  10    5    6 ar
  11    5   10 1
  12    6    7 ar
  13    6   42 1
  14    7   43 1
  15    9   32 1
  16    9   44 1
  17   10   23 1
  18   10   45 1
  19   10   46 1
  20   11   12 1
  21   11   15 1
  22   12   13 1
  23   12   47 1
  24   12   48 1
  25   13   14 1
  26   14   15 ar
  27   14   16 ar
  28   15   19 ar
  29   16   17 ar
  30   16   49 1
  31   17   18 ar
  32   17   20 1
  33   18   19 ar
  34   18   21 1
  35   19   50 1
  36   20   22 1
  37   21   22 1
  38   21   24 1
  39   21   25 1
  40   22   51 1
  41   22   52 1
  42   23   24 am
  43   23   30 1
  44   24   31 2
  45   25   26 ar
  46   25   30 ar
  47   26   27 ar
  48   26   53 1
  49   27   28 ar
  50   27   54 1
  51   28   29 ar
  52   28   55 1
  53   29   30 ar
  54   29   56 1
  55   32   33 ar
  56   32   37 ar
  57   33   34 ar
  58   33   39 1
  59   34   35 ar
  60   34   57 1
  61   35   36 ar
  62   35   58 1
  63   36   37 ar
  64   36   38 1
  65   37   59 1

#	End of record

