#	Name: ASD00845284
#	Creating user name:	WinNT
#	Creation time:	15. 06. 2019 18:52

#	Modifying user name:	WinNT
#	Modification time:	15. 06. 2019 18:52

#	Program:	/corina/corina34_cracker 3.40 0067  02.08.2006

@<TRIPOS>MOLECULE
ASD00845284
  86   91    0    0    0
SMALL
NO_CHARGES


@<TRIPOS>ATOM
   1 F1            -0.0934    -3.1266     4.7188 F       
   2 C2            -0.0167     1.3829     0.0096 C.ar    
   3 C3             0.0021    -0.0041     0.0020 C.ar    
   4 C4             1.2143    -0.6791    -0.0132 C.ar    
   5 C5             2.3989     0.0312    -0.0207 C.ar    
   6 C6             2.3774     1.4139    -0.0126 C.ar    
   7 C7             1.1710     2.0888     0.0021 C.ar    
   8 C8             1.2384    -2.1858    -0.0210 C.3     
   9 C9             0.4953    -2.7219    -1.2261 C.2     
  10 O10            2.6067    -2.6715    -0.0097 O.3     
  11 C11            3.3980    -2.2932    -1.0313 C.2     
  12 N12            4.6790    -2.7090    -1.0811 N.am    
  13 O13            2.9572    -1.5768    -1.9082 O.2     
  14 C14            5.5605    -2.3076    -2.1880 C.3     
  15 C15            6.8541    -1.7366    -1.5975 C.3     
  16 N16            7.4341    -2.7109    -0.6636 N.3     
  17 C17            6.5391    -2.9555     0.4753 C.3     
  18 C18            5.2343    -3.5714    -0.0270 C.3     
  19 N19            8.7475    -2.2811    -0.2113 N.3     
  20 C20            9.3277    -3.2558     0.7230 C.3     
  21 C21           10.7384    -2.8078     1.1126 C.3     
  22 N22           10.6745    -1.4720     1.7219 N.3     
  23 C23           10.0942    -0.4973     0.7877 C.3     
  24 C24            8.6836    -0.9454     0.3981 C.3     
  25 H25           10.1579    -1.4942     2.5884 H       
  26 O26            0.7742    -2.5259    -2.3901 O.2     
  27 N27           -0.5308    -3.4561    -0.7641 N.am    
  28 C28            0.4693    -2.7338     1.1591 C.ar    
  29 C29           -0.5745    -3.4835     0.6314 C.ar    
  30 C30            0.6333    -2.6124     2.5205 C.ar    
  31 C31           -0.2502    -3.2433     3.3820 C.ar    
  32 C32           -1.2951    -3.9938     2.8675 C.ar    
  33 C33           -1.4596    -4.1155     1.5019 C.ar    
  34 Cl34          -2.4029    -4.7849     3.9448 Cl      
  35 C35           -0.9816    -5.8522    -2.0406 C.ar    
  36 C36            0.1970    -6.0093    -2.7556 C.ar    
  37 C37           -1.6532    -6.9608    -1.5611 C.ar    
  38 C38           -1.1529    -8.2277    -1.7919 C.ar    
  39 C39            0.0258    -8.3901    -2.5066 C.ar    
  40 C40            0.7010    -7.2798    -2.9890 C.ar    
  41 O41            0.5172    -9.6366    -2.7336 O.3     
  42 O42            0.8568    -4.9188    -3.2273 O.3     
  43 C43            2.0637    -5.1552    -3.9549 C.3     
  44 C44           -0.2310   -10.7346    -2.2077 C.3     
  45 S45           -1.6188    -4.2377    -1.7375 S.o2    
  46 O46           -2.7979    -4.4105    -0.9634 O.2     
  47 O47           -1.6010    -3.5584    -2.9855 O.2     
  48 O48           -1.1648    -0.7006     0.0099 O.3     
  49 C49           -2.3744     0.0601     0.0260 C.3     
  50 C50           -3.5740    -0.8895     0.0328 C.3     
  51 F51           -3.5417    -1.6899    -1.1142 F       
  52 F52           -3.5190    -1.7022     1.1702 F       
  53 H53           -0.9590     1.9106     0.0170 H       
  54 H54            3.3426    -0.4937    -0.0325 H       
  55 H55            3.3047     1.9675    -0.0178 H       
  56 H56            1.1569     3.1687     0.0084 H       
  57 H57            5.7917    -3.1757    -2.8053 H       
  58 H58            5.0664    -1.5464    -2.7919 H       
  59 H59            7.5631    -1.5360    -2.4008 H       
  60 H60            6.6338    -0.8104    -1.0666 H       
  61 H61            7.0197    -3.6389     1.1753 H       
  62 H62            6.3233    -2.0124     0.9773 H       
  63 H63            4.5248    -3.6485     0.7968 H       
  64 H64            5.4313    -4.5615    -0.4382 H       
  65 H65            8.7062    -3.3179     1.6162 H       
  66 H66            9.3760    -4.2340     0.2445 H       
  67 H67           11.1597    -3.5140     1.8279 H       
  68 H68           11.3672    -2.7719     0.2230 H       
  69 H69           10.0459     0.4809     1.2661 H       
  70 H70           10.7157    -0.4352    -0.1056 H       
  71 H71            8.2622    -0.2391    -0.3173 H       
  72 H72            8.0547    -0.9812     1.2876 H       
  73 H73            1.4496    -2.0266     2.9167 H       
  74 H74           -2.2763    -4.7021     1.1078 H       
  75 H75           -2.5705    -6.8365    -1.0048 H       
  76 H76           -1.6792    -9.0925    -1.4155 H       
  77 H77            1.6181    -7.4041    -3.5456 H       
  78 H78            2.4883    -4.2032    -4.2736 H       
  79 H79            2.7772    -5.6755    -3.3159 H       
  80 H80            1.8463    -5.7673    -4.8302 H       
  81 H81           -0.3014   -10.6405    -1.1241 H       
  82 H82           -1.2322   -10.7316    -2.6385 H       
  83 H83            0.2700   -11.6694    -2.4594 H       
  84 H84           -2.3995     0.6837     0.9196 H       
  85 H85           -2.4172     0.6932    -0.8603 H       
  86 H86           -4.4966    -0.3093     0.0451 H       
@<TRIPOS>BOND
   1    1   31 1
   2    2    3 ar
   3    2    7 ar
   4    2   53 1
   5    3    4 ar
   6    3   48 1
   7    4    5 ar
   8    4    8 1
   9    5    6 ar
  10    5   54 1
  11    6    7 ar
  12    6   55 1
  13    7   56 1
  14    8    9 1
  15    8   10 1
  16    8   28 1
  17    9   26 2
  18    9   27 am
  19   10   11 1
  20   11   12 am
  21   11   13 2
  22   12   14 1
  23   12   18 1
  24   14   15 1
  25   14   57 1
  26   14   58 1
  27   15   16 1
  28   15   59 1
  29   15   60 1
  30   16   17 1
  31   16   19 1
  32   17   18 1
  33   17   61 1
  34   17   62 1
  35   18   63 1
  36   18   64 1
  37   19   20 1
  38   19   24 1
  39   20   21 1
  40   20   65 1
  41   20   66 1
  42   21   22 1
  43   21   67 1
  44   21   68 1
  45   22   23 1
  46   22   25 1
  47   23   24 1
  48   23   69 1
  49   23   70 1
  50   24   71 1
  51   24   72 1
  52   27   45 am
  53   27   29 1
  54   28   29 ar
  55   28   30 ar
  56   29   33 ar
  57   30   31 ar
  58   30   73 1
  59   31   32 ar
  60   32   33 ar
  61   32   34 1
  62   33   74 1
  63   35   36 ar
  64   35   37 ar
  65   35   45 1
  66   36   42 1
  67   36   40 ar
  68   37   38 ar
  69   37   75 1
  70   38   39 ar
  71   38   76 1
  72   39   40 ar
  73   39   41 1
  74   40   77 1
  75   41   44 1
  76   42   43 1
  77   43   78 1
  78   43   79 1
  79   43   80 1
  80   44   81 1
  81   44   82 1
  82   44   83 1
  83   45   46 2
  84   45   47 2
  85   48   49 1
  86   49   50 1
  87   49   84 1
  88   49   85 1
  89   50   51 1
  90   50   52 1
  91   50   86 1

#	End of record

