#	Name: ASD05430455
#	Creating user name:	WinNT
#	Creation time:	15. 06. 2019 21:00

#	Modifying user name:	WinNT
#	Modification time:	15. 06. 2019 21:00

#	Program:	/corina/corina34_cracker 3.40 0067  02.08.2006

@<TRIPOS>MOLECULE
ASD05430455
  56   60    0    0    0
SMALL
NO_CHARGES


@<TRIPOS>ATOM
   1 C1            -0.3091     1.8131    -0.6969 C.ar    
   2 C2            -0.2688     0.4194    -0.6729 C.ar    
   3 C3            -1.4439    -0.3108    -0.5505 C.ar    
   4 C4            -2.6553     0.3383    -0.4521 C.ar    
   5 C5            -2.7036     1.7362    -0.4750 C.ar    
   6 C6            -1.5199     2.4713    -0.5929 C.ar    
   7 C7            -5.1467     1.7259    -0.4053 C.2     
   8 C8            -3.9962     2.4313    -0.3705 C.2     
   9 O9             0.8432     2.5245    -0.8168 O.3     
  10 C10            1.4191    -1.2399     0.0525 C.2     
  11 N11            0.9609    -0.2462    -0.7731 N.pl3   
  12 C12            2.6370    -1.5932    -0.4009 C.2     
  13 N13            2.9193    -0.8392    -1.4736 N.2     
  14 C14            1.9231    -0.0285    -1.7066 C.2     
  15 C15            3.5288    -2.6521     0.1945 C.3     
  16 C16           -7.2008     0.2290     0.6233 C.2     
  17 N17           -7.4366     1.5370     0.4378 N.am    
  18 C18           -5.8896    -0.4177     0.2566 C.3     
  19 C19           -6.4676     2.3474    -0.1433 C.2     
  20 O20           -5.1776     0.3834    -0.6914 O.3     
  21 C21            0.7275     3.9487    -0.8345 C.3     
  22 O22           -8.0760    -0.4587     1.1045 O.2     
  23 C23           -8.7085     2.1352     0.8616 C.3     
  24 C24           -9.0979     3.1992    -0.1746 C.3     
  25 C25           -7.9750     4.2398    -0.2452 C.3     
  26 N26           -6.6885     3.5813    -0.4539 N.2     
  27 C27           -9.7751     1.0726     0.9269 C.ar    
  28 C28          -10.4596     0.8526     2.1076 C.ar    
  29 C29          -10.0723     0.3225    -0.1957 C.ar    
  30 C30          -11.0508    -0.6516    -0.1373 C.ar    
  31 C31          -11.7334    -0.8765     1.0462 C.ar    
  32 C32          -11.4382    -0.1213     2.1685 C.ar    
  33 F33          -12.6902    -1.8285     1.1044 F       
  34 H34           -1.4080    -1.3901    -0.5328 H       
  35 H35           -3.5675    -0.2321    -0.3578 H       
  36 H36           -1.5525     3.5507    -0.6106 H       
  37 H37           -4.0246     3.5059    -0.2660 H       
  38 H38            0.9043    -1.6563     0.9058 H       
  39 H39            1.8727     0.6946    -2.5072 H       
  40 H40            3.3122    -3.6135    -0.2712 H       
  41 H41            4.5720    -2.3898     0.0180 H       
  42 H42            3.3474    -2.7188     1.2672 H       
  43 H43           -5.2813    -0.5290     1.1542 H       
  44 H44           -6.0821    -1.4022    -0.1696 H       
  45 H45            1.7181     4.3925    -0.9342 H       
  46 H46            0.1067     4.2524    -1.6774 H       
  47 H47            0.2695     4.2876     0.0948 H       
  48 H48           -8.5895     2.5999     1.8404 H       
  49 H49           -9.2260     2.7313    -1.1507 H       
  50 H50          -10.0278     3.6817     0.1264 H       
  51 H51           -8.1704     4.9271    -1.0684 H       
  52 H52           -7.9414     4.7992     0.6897 H       
  53 H53          -10.2292     1.4418     2.9830 H       
  54 H54           -9.5397     0.4980    -1.1187 H       
  55 H55          -11.2833    -1.2371    -1.0146 H       
  56 H56          -11.9698    -0.2960     3.0923 H       
@<TRIPOS>BOND
   1    1    2 ar
   2    1    9 1
   3    1    6 ar
   4    2    3 ar
   5    2   11 1
   6    3    4 ar
   7    3   34 1
   8    4    5 ar
   9    4   35 1
  10    5    6 ar
  11    5    8 1
  12    6   36 1
  13    7    8 2
  14    7   19 1
  15    7   20 1
  16    8   37 1
  17    9   21 1
  18   10   11 1
  19   10   12 2
  20   10   38 1
  21   11   14 1
  22   12   13 1
  23   12   15 1
  24   13   14 2
  25   14   39 1
  26   15   40 1
  27   15   41 1
  28   15   42 1
  29   16   17 am
  30   16   18 1
  31   16   22 2
  32   17   23 1
  33   17   19 1
  34   18   20 1
  35   18   43 1
  36   18   44 1
  37   19   26 2
  38   21   45 1
  39   21   46 1
  40   21   47 1
  41   23   24 1
  42   23   27 1
  43   23   48 1
  44   24   25 1
  45   24   49 1
  46   24   50 1
  47   25   26 1
  48   25   51 1
  49   25   52 1
  50   27   28 ar
  51   27   29 ar
  52   28   32 ar
  53   28   53 1
  54   29   30 ar
  55   29   54 1
  56   30   31 ar
  57   30   55 1
  58   31   32 ar
  59   31   33 1
  60   32   56 1

#	End of record

