#	Name: ASD01908025
#	Creating user name:	WinNT
#	Creation time:	15. 06. 2019 19:54

#	Modifying user name:	WinNT
#	Modification time:	15. 06. 2019 19:54

#	Program:	/corina/corina34_cracker 3.40 0067  02.08.2006

@<TRIPOS>MOLECULE
ASD01908025
  41   43    0    0    0
SMALL
NO_CHARGES


@<TRIPOS>ATOM
   1 S1            -0.0218     1.7555     0.0117 S.3     
   2 C2             0.0021    -0.0041     0.0020 C.2     
   3 N3             1.2281    -0.4182    -0.0119 N.2     
   4 C4             2.1618     0.5365    -0.0157 C.2     
   5 C5             1.6875     1.7982    -0.0044 C.2     
   6 O6             4.3197    -1.0798    -0.0445 O.3     
   7 B7             3.6981     0.2133    -0.0316 Du      
   8 O8             4.7880     1.1463    -0.0370 O.3     
   9 C9             5.7567     0.5712    -0.9391 C.3     
  10 C10            5.4391    -0.9380    -0.9441 C.3     
  11 C11            6.6392    -1.7370    -0.4319 C.3     
  12 C12            5.0532    -1.3968    -2.3518 C.3     
  13 C13            5.5903     1.1558    -2.3432 C.3     
  14 C14            7.1763     0.8156    -0.4233 C.3     
  15 O15           -1.0933    -0.8016     0.0089 O.3     
  16 C16           -2.3134    -0.2081     0.0240 C.ar    
  17 C17           -3.4600    -0.9924     0.0314 C.ar    
  18 C18           -4.6982    -0.3747     0.0468 C.ar    
  19 C19           -4.7458     1.0128     0.0542 C.ar    
  20 C20           -3.5657     1.7292     0.0461 C.ar    
  21 N21           -2.3996     1.1117     0.0369 N.ar    
  22 C22           -3.6097     3.2356     0.0541 C.3     
  23 H23            2.2912     2.6937    -0.0059 H       
  24 H24            6.3791    -2.7945    -0.3869 H       
  25 H25            7.4830    -1.5988    -1.1080 H       
  26 H26            6.9105    -1.3868     0.5640 H       
  27 H27            4.2081    -0.8072    -2.7072 H       
  28 H28            5.9004    -1.2594    -3.0238 H       
  29 H29            4.7762    -2.4508    -2.3272 H       
  30 H30            5.7614     2.2318    -2.3114 H       
  31 H31            6.3111     0.6929    -3.0172 H       
  32 H32            4.5797     0.9590    -2.7012 H       
  33 H33            7.2821     0.3794     0.5699 H       
  34 H34            7.8937     0.3535    -1.1014 H       
  35 H35            7.3643     1.8880    -0.3711 H       
  36 H36           -3.3860    -2.0699     0.0249 H       
  37 H37           -5.6067    -0.9585     0.0525 H       
  38 H38           -5.6959     1.5262     0.0658 H       
  39 H39           -3.6102     3.5936     1.0836 H       
  40 H40           -2.7359     3.6274    -0.4665 H       
  41 H41           -4.5150     3.5752    -0.4491 H       
@<TRIPOS>BOND
   1    1    2 1
   2    1    5 1
   3    2    3 2
   4    2   15 1
   5    3    4 1
   6    4    5 2
   7    4    7 1
   8    5   23 1
   9    6    7 1
  10    6   10 1
  11    7    8 1
  12    8    9 1
  13    9   10 1
  14    9   13 1
  15    9   14 1
  16   10   11 1
  17   10   12 1
  18   11   24 1
  19   11   25 1
  20   11   26 1
  21   12   27 1
  22   12   28 1
  23   12   29 1
  24   13   30 1
  25   13   31 1
  26   13   32 1
  27   14   33 1
  28   14   34 1
  29   14   35 1
  30   15   16 1
  31   16   17 ar
  32   16   21 ar
  33   17   18 ar
  34   17   36 1
  35   18   19 ar
  36   18   37 1
  37   19   20 ar
  38   19   38 1
  39   20   21 ar
  40   20   22 1
  41   22   39 1
  42   22   40 1
  43   22   41 1

#	End of record

