#	Name: ASD01915571
#	Creating user name:	WinNT
#	Creation time:	15. 06. 2019 20:05

#	Modifying user name:	WinNT
#	Modification time:	15. 06. 2019 20:05

#	Program:	/corina/corina34_cracker 3.40 0067  02.08.2006

@<TRIPOS>MOLECULE
ASD01915571
  43   46    0    0    0
SMALL
NO_CHARGES


@<TRIPOS>ATOM
   1 C1            -0.0043     1.4630     0.2176 C.2     
   2 N2             0.0615     0.1098    -0.0287 N.pl3   
   3 C3            -1.1511    -0.6743    -0.2923 C.3     
   4 C4            -2.3299    -0.0462     0.4494 C.3     
   5 N5            -2.4043     1.3988     0.2637 N.am    
   6 C6            -1.2916     2.1721     0.2678 C.2     
   7 C7             1.2784     1.9001     0.3938 C.2     
   8 C8             2.0745     0.7555     0.2523 C.2     
   9 N9             1.2812    -0.2617     0.0091 N.2     
  10 C10            3.5766     0.7018     0.3606 C.3     
  11 O11            4.0816     2.0105     0.6335 O.3     
  12 C12            5.4285     2.1377     0.7620 C.ar    
  13 O13           -1.3542     3.3860     0.3109 O.2     
  14 C14            5.9870     3.3796     1.0272 C.ar    
  15 C15            6.2469     1.0248     0.6337 C.ar    
  16 C16            7.6158     1.1567     0.7646 C.ar    
  17 C17            8.1704     2.3966     1.0233 C.ar    
  18 C18            7.3565     3.5063     1.1572 C.ar    
  19 C19           -3.6492     1.9981     0.0776 C.ar    
  20 C20           -4.8073     1.2638     0.3052 C.ar    
  21 C21           -6.0371     1.8699     0.1176 C.ar    
  22 C22           -6.0658     3.1972    -0.2936 C.ar    
  23 C23           -4.8734     3.8667    -0.5012 C.ar    
  24 N24           -3.7167     3.2623    -0.3087 N.ar    
  25 F25           -7.2453     3.8263    -0.4889 F       
  26 C26           -7.3159     1.1082     0.3532 C.3     
  27 H27           -1.3558    -0.6791    -1.3629 H       
  28 H28           -1.0058    -1.6971     0.0554 H       
  29 H29           -3.2542    -0.4960     0.0868 H       
  30 H30           -2.2305    -0.2599     1.5136 H       
  31 H31            1.6072     2.9085     0.5974 H       
  32 H32            3.8587     0.0276     1.1693 H       
  33 H33            3.9959     0.3390    -0.5778 H       
  34 H34            5.3517     4.2467     1.1315 H       
  35 H35            5.8141     0.0561     0.4320 H       
  36 H36            8.2533     0.2906     0.6652 H       
  37 H37            9.2408     2.4976     1.1253 H       
  38 H38            7.7921     4.4737     1.3589 H       
  39 H39           -4.7481     0.2336     0.6240 H       
  40 H40           -4.8895     4.8981    -0.8211 H       
  41 H41           -7.6243     1.2283     1.3917 H       
  42 H42           -8.0951     1.4941    -0.3042 H       
  43 H43           -7.1533     0.0512     0.1424 H       
@<TRIPOS>BOND
   1    1    2 1
   2    1    7 2
   3    1    6 1
   4    2    3 1
   5    2    9 1
   6    3    4 1
   7    3   27 1
   8    3   28 1
   9    4    5 1
  10    4   29 1
  11    4   30 1
  12    5    6 am
  13    5   19 1
  14    6   13 2
  15    7    8 1
  16    7   31 1
  17    8    9 2
  18    8   10 1
  19   10   11 1
  20   10   32 1
  21   10   33 1
  22   11   12 1
  23   12   14 ar
  24   12   15 ar
  25   14   18 ar
  26   14   34 1
  27   15   16 ar
  28   15   35 1
  29   16   17 ar
  30   16   36 1
  31   17   18 ar
  32   17   37 1
  33   18   38 1
  34   19   20 ar
  35   19   24 ar
  36   20   21 ar
  37   20   39 1
  38   21   22 ar
  39   21   26 1
  40   22   23 ar
  41   22   25 1
  42   23   24 ar
  43   23   40 1
  44   26   41 1
  45   26   42 1
  46   26   43 1

#	End of record

