#	Name: ASD01912397
#	Creating user name:	WinNT
#	Creation time:	15. 06. 2019 19:59

#	Modifying user name:	WinNT
#	Modification time:	15. 06. 2019 19:59

#	Program:	/corina/corina34_cracker 3.40 0067  02.08.2006

@<TRIPOS>MOLECULE
ASD01912397
  46   48    0    0    0
SMALL
NO_CHARGES


@<TRIPOS>ATOM
   1 C1             0.0033     1.4185    -0.0221 C.3     
   2 C2             0.0313    -0.0530    -0.0446 C.1     
   3 C3             0.0536    -1.2267    -0.0626 C.1     
   4 O4             1.3412     1.9205    -0.0282 O.3     
   5 N5            -0.7324     3.4985    -3.6829 N.3     
   6 C6            -1.4612     3.9746    -2.5002 C.3     
   7 C7            -0.7701     3.4642    -1.2338 C.3     
   8 C8            -0.7403     1.9335    -1.2561 C.3     
   9 C9            -0.0182     1.4632    -2.5218 C.3     
  10 C10           -0.7312     2.0316    -3.7509 C.3     
  11 C11           -1.2558     4.0507    -4.8462 C.ar    
  12 C12           -0.4749     4.9092    -5.6138 C.ar    
  13 C13           -1.0081     5.4511    -6.7691 C.ar    
  14 C14           -2.3093     5.1152    -7.1196 C.ar    
  15 C15           -3.0272     4.2570    -6.3113 C.ar    
  16 N16           -2.4910     3.7508    -5.2168 N.ar    
  17 N17            0.7905     5.2105    -5.2344 N.pl3   
  18 O18            1.5010     5.8809    -5.9618 O.2     
  19 O19            1.2174     4.8109    -4.1659 O.2     
  20 C20            0.0809    -2.6583    -0.0846 C.ar    
  21 C21           -1.1172    -3.3736    -0.0831 C.ar    
  22 C22           -1.0742    -4.7563    -0.1045 C.ar    
  23 C23            0.1654    -5.3807    -0.1267 C.ar    
  24 C24            1.3136    -4.6104    -0.1268 C.ar    
  25 N25            1.2461    -3.2948    -0.1117 N.ar    
  26 C26            2.6610    -5.2850    -0.1503 C.3     
  27 H27           -0.5081     1.7584     0.8785 H       
  28 H28            1.8567     1.6568    -0.8027 H       
  29 H29           -1.4714     5.0645    -2.4943 H       
  30 H30           -2.4852     3.6022    -2.5304 H       
  31 H31            0.2496     3.8475    -1.1961 H       
  32 H32           -1.3202     3.8047    -0.3566 H       
  33 H33           -1.7603     1.5492    -1.2534 H       
  34 H34            1.0133     1.8151    -2.5043 H       
  35 H35           -0.0312     0.3742    -2.5648 H       
  36 H36           -1.7586     1.6683    -3.7752 H       
  37 H37           -0.2111     1.7104    -4.6534 H       
  38 H38           -0.4258     6.1207    -7.3847 H       
  39 H39           -2.7551     5.5216    -8.0154 H       
  40 H40           -4.0395     3.9935    -6.5799 H       
  41 H41           -2.0646    -2.8554    -0.0652 H       
  42 H42           -1.9848    -5.3370    -0.1036 H       
  43 H43            0.2324    -6.4585    -0.1433 H       
  44 H44            2.9755    -5.4324    -1.1835 H       
  45 H45            3.3896    -4.6595     0.3655 H       
  46 H46            2.5925    -6.2510     0.3499 H       
@<TRIPOS>BOND
   1    1    2 1
   2    1    4 1
   3    1    8 1
   4    1   27 1
   5    2    3 3
   6    3   20 1
   7    4   28 1
   8    5    6 1
   9    5   10 1
  10    5   11 1
  11    6    7 1
  12    6   29 1
  13    6   30 1
  14    7    8 1
  15    7   31 1
  16    7   32 1
  17    8    9 1
  18    8   33 1
  19    9   10 1
  20    9   34 1
  21    9   35 1
  22   10   36 1
  23   10   37 1
  24   11   12 ar
  25   11   16 ar
  26   12   13 ar
  27   12   17 1
  28   13   14 ar
  29   13   38 1
  30   14   15 ar
  31   14   39 1
  32   15   16 ar
  33   15   40 1
  34   17   18 2
  35   17   19 2
  36   20   21 ar
  37   20   25 ar
  38   21   22 ar
  39   21   41 1
  40   22   23 ar
  41   22   42 1
  42   23   24 ar
  43   23   43 1
  44   24   25 ar
  45   24   26 1
  46   26   44 1
  47   26   45 1
  48   26   46 1

#	End of record

