#	Name: ASD01820167
#	Creating user name:	WinNT
#	Creation time:	15. 06. 2019 19:36

#	Modifying user name:	WinNT
#	Modification time:	15. 06. 2019 19:36

#	Program:	/corina/corina34_cracker 3.40 0067  02.08.2006

@<TRIPOS>MOLECULE
ASD01820167
 102  108    0    0    0
SMALL
NO_CHARGES


@<TRIPOS>ATOM
   1 C1            -0.0188     1.5345     0.0105 C.3     
   2 C2             0.0021    -0.0041     0.0020 C.3     
   3 C3            -0.6374    -0.3765     1.3223 C.2     
   4 N4            -0.9705     0.7414     1.9796 N.am    
   5 C5            -0.6687     1.8751     1.3343 C.2     
   6 C6            -1.6129     0.7255     3.2962 C.3     
   7 C7            -0.5402     0.7344     4.3872 C.3     
   8 C8            -1.2110     0.7178     5.7622 C.3     
   9 N9            -0.1810     0.7263     6.8096 N.4     
  10 C10           -0.8251     0.7103     8.1298 C.3     
  11 C11            0.2476     0.7192     9.2207 C.3     
  12 C12           -0.4232     0.7026    10.5957 C.3     
  13 C13            0.6495     0.7114    11.6866 C.3     
  14 C14           -0.0213     0.6948    13.0616 C.3     
  15 C15            1.0514     0.7036    14.1526 C.3     
  16 N16            0.4073     0.6877    15.4728 N.4     
  17 C17            1.4372     0.6962    16.5202 C.3     
  18 C18            0.7664     0.6796    17.8952 C.3     
  19 N19            1.1968     0.6725    20.3027 N.am    
  20 O20           -0.8816     2.9957     1.7449 O.2     
  21 O21           -0.8189    -1.5068     1.7211 O.2     
  22 C22            1.8391     0.6884    18.9861 C.3     
  23 C23            0.8784    -0.4449    20.9807 C.2     
  24 C24            0.2494    -0.0560    22.2606 C.ar    
  25 C25            0.2301     1.3537    22.2682 C.ar    
  26 C26            0.8531     1.7734    20.9952 C.2     
  27 C27           -0.2677    -0.7579    23.3372 C.ar    
  28 C28           -0.8010    -0.0681    24.4152 C.ar    
  29 C29           -0.8200     1.3136    24.4227 C.ar    
  30 C30           -0.3063     2.0294    23.3520 C.ar    
  31 O31            1.0744    -1.5827    20.6041 O.2     
  32 O32            1.0196     2.9202    20.6318 O.2     
  33 C33           -0.4462     1.8748    15.6156 C.3     
  34 C34           -0.4132    -0.5238    15.6027 C.3     
  35 C35            0.6724    -0.4608     6.6668 C.3     
  36 C36            0.6395     1.9378     6.6797 C.3     
  37 C37            1.4133     2.1102    -0.0001 C.3     
  38 C38            2.1106     1.4837     1.1971 C.ar    
  39 C39            2.1297     0.0907     1.1890 C.ar    
  40 C40            1.4493    -0.5406    -0.0154 C.3     
  41 C41            2.1058     0.1044    -1.2258 C.ar    
  42 C42            2.0870     1.4974    -1.2177 C.ar    
  43 C43            2.6839     2.1839     2.2199 C.ar    
  44 C44            3.2889     1.4825     3.2549 C.ar    
  45 C45            3.3081     0.1001     3.2464 C.ar    
  46 C46            2.7225    -0.6055     2.2032 C.ar    
  47 C47            2.6781    -0.5802    -2.2597 C.ar    
  48 C48            3.2441     0.1372    -3.3056 C.ar    
  49 C49            3.2257     1.5196    -3.2973 C.ar    
  50 C50            2.6409     2.2093    -2.2431 C.ar    
  51 H51           -0.5978     1.9201    -0.8287 H       
  52 H52           -0.5757    -0.3962    -0.8350 H       
  53 H53           -2.2461     1.6063     3.4022 H       
  54 H54           -2.2217    -0.1734     3.3926 H       
  55 H55            0.0931    -0.1464     4.2812 H       
  56 H56            0.0687     1.6333     4.2908 H       
  57 H57           -1.8443     1.5986     5.8681 H       
  58 H58           -1.8198    -0.1812     5.8586 H       
  59 H59           -1.4584     1.5911     8.2358 H       
  60 H60           -1.4339    -0.1886     8.2262 H       
  61 H61            0.8809    -0.1616     9.1147 H       
  62 H62            0.8564     1.6181     9.1243 H       
  63 H63           -1.0565     1.5834    10.7017 H       
  64 H64           -1.0321    -0.1964    10.6921 H       
  65 H65            1.2828    -0.1694    11.5807 H       
  66 H66            1.2583     1.6104    11.5902 H       
  67 H67           -0.6546     1.5756    13.1676 H       
  68 H68           -0.6302    -0.2042    13.1580 H       
  69 H69            1.6847    -0.1772    14.0466 H       
  70 H70            1.6602     1.6026    14.0562 H       
  71 H71            2.0705    -0.1846    16.4142 H       
  72 H72            2.0461     1.5951    16.4238 H       
  73 H73            0.1332     1.5604    18.0012 H       
  74 H74            0.1576    -0.2194    17.9916 H       
  75 H75            2.4724    -0.1924    18.8801 H       
  76 H76            2.4480     1.5874    18.8897 H       
  77 H77           -0.2558    -1.8378    23.3366 H       
  78 H78           -1.2047    -0.6144    25.2548 H       
  79 H79           -1.2381     1.8396    25.2682 H       
  80 H80           -0.3238     3.1092    23.3632 H       
  81 H81           -1.2104     1.8685    14.8384 H       
  82 H82           -0.9241     1.8629    16.5952 H       
  83 H83            0.1627     2.7737    15.5192 H       
  84 H84            0.2201    -1.4047    15.4967 H       
  85 H85           -0.8911    -0.5357    16.5822 H       
  86 H86           -1.1774    -0.5302    14.8255 H       
  87 H87            1.1503    -0.4490     5.6872 H       
  88 H88            1.4366    -0.4545     7.4440 H       
  89 H89            0.0636    -1.3598     6.7632 H       
  90 H90            0.0062     2.8186     6.7857 H       
  91 H91            1.4037     1.9441     7.4569 H       
  92 H92            1.1174     1.9496     5.7001 H       
  93 H93            1.4358     3.1999     0.0142 H       
  94 H94            1.5156    -1.6285    -0.0223 H       
  95 H95            2.6674     3.2638     2.2238 H       
  96 H96            3.7476     2.0204     4.0713 H       
  97 H97            3.7819    -0.4346     4.0563 H       
  98 H98            2.7358    -1.6854     2.1944 H       
  99 H99            2.6907    -1.6601    -2.2637 H       
 100 H100           3.7018    -0.3883    -4.1307 H       
 101 H101           3.6693     2.0668    -4.1160 H       
 102 H102           2.6241     3.2891    -2.2346 H       
@<TRIPOS>BOND
   1    1    2 1
   2    1   37 1
   3    1    5 1
   4    1   51 1
   5    2    3 1
   6    2   40 1
   7    2   52 1
   8    3    4 am
   9    3   21 2
  10    4    5 am
  11    4    6 1
  12    5   20 2
  13    6    7 1
  14    6   53 1
  15    6   54 1
  16    7    8 1
  17    7   55 1
  18    7   56 1
  19    8    9 1
  20    8   57 1
  21    8   58 1
  22    9   10 1
  23    9   35 1
  24    9   36 1
  25   10   11 1
  26   10   59 1
  27   10   60 1
  28   11   12 1
  29   11   61 1
  30   11   62 1
  31   12   13 1
  32   12   63 1
  33   12   64 1
  34   13   14 1
  35   13   65 1
  36   13   66 1
  37   14   15 1
  38   14   67 1
  39   14   68 1
  40   15   16 1
  41   15   69 1
  42   15   70 1
  43   16   17 1
  44   16   33 1
  45   16   34 1
  46   17   18 1
  47   17   71 1
  48   17   72 1
  49   18   22 1
  50   18   73 1
  51   18   74 1
  52   19   23 am
  53   19   22 1
  54   19   26 am
  55   22   75 1
  56   22   76 1
  57   23   24 1
  58   23   31 2
  59   24   25 ar
  60   24   27 ar
  61   25   26 1
  62   25   30 ar
  63   26   32 2
  64   27   28 ar
  65   27   77 1
  66   28   29 ar
  67   28   78 1
  68   29   30 ar
  69   29   79 1
  70   30   80 1
  71   33   81 1
  72   33   82 1
  73   33   83 1
  74   34   84 1
  75   34   85 1
  76   34   86 1
  77   35   87 1
  78   35   88 1
  79   35   89 1
  80   36   90 1
  81   36   91 1
  82   36   92 1
  83   37   38 1
  84   37   42 1
  85   37   93 1
  86   38   39 ar
  87   38   43 ar
  88   39   40 1
  89   39   46 ar
  90   40   41 1
  91   40   94 1
  92   41   42 ar
  93   41   47 ar
  94   42   50 ar
  95   43   44 ar
  96   43   95 1
  97   44   45 ar
  98   44   96 1
  99   45   46 ar
 100   45   97 1
 101   46   98 1
 102   47   48 ar
 103   47   99 1
 104   48   49 ar
 105   48  100 1
 106   49   50 ar
 107   49  101 1
 108   50  102 1

#	End of record

