#	Name: ASD01841025
#	Creating user name:	WinNT
#	Creation time:	15. 06. 2019 19:38

#	Modifying user name:	WinNT
#	Modification time:	15. 06. 2019 19:38

#	Program:	/corina/corina34_cracker 3.40 0067  02.08.2006

@<TRIPOS>MOLECULE
ASD01841025
  32   34    0    0    0
SMALL
NO_CHARGES


@<TRIPOS>ATOM
   1 C1            -0.0167     1.3826     0.0096 C.ar    
   2 C2             0.0021    -0.0041     0.0020 C.ar    
   3 C3             1.2034    -0.6767    -0.0131 C.ar    
   4 C4             2.4050     0.0299    -0.0208 C.ar    
   5 C5             2.4046     1.4268    -0.0133 C.ar    
   6 C6             1.1593     2.0983     0.0023 C.ar    
   7 S7             4.0771    -0.5257    -0.0398 S.3     
   8 C8             4.6442     1.1384    -0.0364 C.2     
   9 N9             3.6465     1.9517    -0.0224 N.2     
  10 O10            1.1239     3.4572     0.0094 O.3     
  11 C11           -0.1657     4.0725     0.0252 C.3     
  12 C12            1.2193    -2.1836    -0.0208 C.3     
  13 N13            5.9766     1.5205    -0.0471 N.am    
  14 C14            6.3027     2.8282    -0.0432 C.2     
  15 C15            7.7513     3.2436    -0.0549 C.3     
  16 O16            5.4304     3.6706    -0.0304 O.2     
  17 C17            8.0563     4.7429    -0.0498 C.3     
  18 C18            8.3061     3.9071     1.2072 C.3     
  19 H19           -0.9618     1.9054     0.0170 H       
  20 H20           -0.9259    -0.5566     0.0083 H       
  21 H21           -0.7236     3.7697    -0.8609 H       
  22 H22           -0.7062     3.7607     0.9190 H       
  23 H23           -0.0511     5.1565     0.0295 H       
  24 H24            1.2131    -2.5417    -1.0503 H       
  25 H25            2.1181    -2.5401     0.4824 H       
  26 H26            0.3383    -2.5589     0.4997 H       
  27 H27            6.6743     0.8467    -0.0574 H       
  28 H28            8.4217     2.5956    -0.6194 H       
  29 H29            8.9276     5.0812    -0.6107 H       
  30 H30            7.2093     5.4288    -0.0380 H       
  31 H31            7.6234     4.0432     2.0459 H       
  32 H32            9.3418     3.6955     1.4733 H       
@<TRIPOS>BOND
   1    1    2 ar
   2    1    6 ar
   3    1   19 1
   4    2    3 ar
   5    2   20 1
   6    3    4 ar
   7    3   12 1
   8    4    5 ar
   9    4    7 1
  10    5    6 ar
  11    5    9 1
  12    6   10 1
  13    7    8 1
  14    8    9 2
  15    8   13 1
  16   10   11 1
  17   11   21 1
  18   11   22 1
  19   11   23 1
  20   12   24 1
  21   12   25 1
  22   12   26 1
  23   13   14 am
  24   13   27 1
  25   14   15 1
  26   14   16 2
  27   15   17 1
  28   15   18 1
  29   15   28 1
  30   17   18 1
  31   17   29 1
  32   17   30 1
  33   18   31 1
  34   18   32 1

#	End of record

