#	Name: ASD05720043
#	Creating user name:	WinNT
#	Creation time:	15. 06. 2019 21:01

#	Modifying user name:	WinNT
#	Modification time:	15. 06. 2019 21:01

#	Program:	/corina/corina34_cracker 3.40 0067  02.08.2006

@<TRIPOS>MOLECULE
ASD05720043
  64   69    0    0    0
SMALL
NO_CHARGES


@<TRIPOS>ATOM
   1 C1             0.5120     1.0236     1.1166 C.2     
   2 N2             0.4123    -0.2391     0.6809 N.am    
   3 C3             1.6581    -0.6134    -0.0048 C.3     
   4 C4             2.5298     0.6534     0.0955 C.3     
   5 N5             1.6825     1.6070     0.8271 N.am    
   6 O6            -0.3809     1.5905     1.7159 O.2     
   7 C7             2.0589     2.9774     1.1830 C.3     
   8 N8             1.8405     2.3727     3.5570 N.3     
   9 C9             2.7354     2.9805     2.5552 C.3     
  10 C10            3.0053     4.4321     3.0042 C.3     
  11 C11            2.7090     4.3879     4.5264 C.3     
  12 C12            1.5283     3.3870     4.5864 C.3     
  13 C13            1.3817    -0.9606    -1.4691 C.3     
  14 C14            0.5223    -2.2244    -1.5401 C.3     
  15 C15            0.6397     0.1989    -2.1368 C.3     
  16 C16           -1.6780    -3.1431     0.6610 C.2     
  17 N17           -0.6242    -2.3358     0.5053 N.2     
  18 C18           -0.6920    -1.0636     0.8500 C.2     
  19 C19           -1.8850    -0.5415     1.3902 C.2     
  20 C20           -2.9530    -1.3557     1.5494 C.2     
  21 N21           -2.8524    -2.6690     1.1827 N.pl3   
  22 N22           -3.7641    -3.7299     1.2250 N.2     
  23 C23           -3.1921    -4.8110     0.7551 C.2     
  24 C24           -1.8793    -4.5010     0.3794 C.2     
  25 C25           -0.8891    -5.4334    -0.2044 C.ar    
  26 C26           -0.6500    -6.6675     0.4024 C.ar    
  27 C27            0.2729    -7.5356    -0.1423 C.ar    
  28 C28            0.9675    -7.1787    -1.3009 C.ar    
  29 C29            0.7275    -5.9455    -1.9058 C.ar    
  30 C30           -0.1982    -5.0809    -1.3652 C.ar    
  31 N31            3.4786    -9.0253    -3.1614 N.pl3   
  32 N32            2.6742    -7.8902    -2.9696 N.2     
  33 C33            1.9603    -8.1112    -1.8869 C.2     
  34 N34            2.2798    -9.3187    -1.4012 N.2     
  35 C35            3.1888    -9.8736    -2.1586 C.2     
  36 F36            0.5055    -8.7301     0.4442 F       
  37 H37            2.1383    -1.4495     0.5035 H       
  38 H38            3.4428     0.4464     0.6537 H       
  39 H39            2.7657     1.0352    -0.8978 H       
  40 H40            2.7494     3.3700     0.4365 H       
  41 H41            1.1664     3.6022     1.2164 H       
  42 H42            0.9977     2.0246     3.1251 H       
  43 H43            3.6727     2.4259     2.5103 H       
  44 H44            4.0447     4.7050     2.8216 H       
  45 H45            2.3300     5.1233     2.5000 H       
  46 H46            3.5687     4.0114     5.0808 H       
  47 H47            2.4083     5.3689     4.8943 H       
  48 H48            0.5911     3.8910     4.3505 H       
  49 H49            1.4734     2.9235     5.5715 H       
  50 H50            2.3257    -1.1335    -1.9859 H       
  51 H51           -0.4947    -1.9904    -1.2257 H       
  52 H52            0.5093    -2.5978    -2.5641 H       
  53 H53            0.9403    -2.9855    -0.8812 H       
  54 H54            1.2519     1.0993    -2.0862 H       
  55 H55            0.4428    -0.0484    -3.1800 H       
  56 H56           -0.3043     0.3719    -1.6200 H       
  57 H57           -1.9453     0.4987     1.6744 H       
  58 H58           -3.8748    -0.9730     1.9620 H       
  59 H59           -3.6580    -5.7815     0.6683 H       
  60 H60           -1.1872    -6.9422     1.2981 H       
  61 H61            1.2649    -5.6699    -2.8011 H       
  62 H62           -0.3866    -4.1279    -1.8370 H       
  63 H63            4.1152    -9.1707    -3.8787 H       
  64 H64            3.6314   -10.8468    -2.0057 H       
@<TRIPOS>BOND
   1    1    2 am
   2    1    5 am
   3    1    6 2
   4    2    3 1
   5    2   18 1
   6    3    4 1
   7    3   13 1
   8    3   37 1
   9    4    5 1
  10    4   38 1
  11    4   39 1
  12    5    7 1
  13    7    9 1
  14    7   40 1
  15    7   41 1
  16    8    9 1
  17    8   12 1
  18    8   42 1
  19    9   10 1
  20    9   43 1
  21   10   11 1
  22   10   44 1
  23   10   45 1
  24   11   12 1
  25   11   46 1
  26   11   47 1
  27   12   48 1
  28   12   49 1
  29   13   14 1
  30   13   15 1
  31   13   50 1
  32   14   51 1
  33   14   52 1
  34   14   53 1
  35   15   54 1
  36   15   55 1
  37   15   56 1
  38   16   17 1
  39   16   21 1
  40   16   24 2
  41   17   18 2
  42   18   19 1
  43   19   20 2
  44   19   57 1
  45   20   21 1
  46   20   58 1
  47   21   22 1
  48   22   23 2
  49   23   24 1
  50   23   59 1
  51   24   25 1
  52   25   26 ar
  53   25   30 ar
  54   26   27 ar
  55   26   60 1
  56   27   28 ar
  57   27   36 1
  58   28   29 ar
  59   28   33 1
  60   29   30 ar
  61   29   61 1
  62   30   62 1
  63   31   32 1
  64   31   35 1
  65   31   63 1
  66   32   33 2
  67   33   34 1
  68   34   35 2
  69   35   64 1

#	End of record

