#	Name: ASD01901227
#	Creating user name:	WinNT
#	Creation time:	15. 06. 2019 19:53

#	Modifying user name:	WinNT
#	Modification time:	15. 06. 2019 19:53

#	Program:	/corina/corina34_cracker 3.40 0067  02.08.2006

@<TRIPOS>MOLECULE
ASD01901227
  39   42    0    0    0
SMALL
NO_CHARGES


@<TRIPOS>ATOM
   1 C1            -0.0166     1.3750     0.0096 C.ar    
   2 C2             0.0021    -0.0041     0.0020 C.ar    
   3 C3             1.2078    -0.6830    -0.0131 C.ar    
   4 C4             2.4027     0.0149    -0.0203 C.ar    
   5 C5             2.3997     1.3941    -0.0129 C.ar    
   6 C6             1.1860     2.0866     0.0019 C.ar    
   7 C7             1.1748     3.5185     0.0097 C.1     
   8 C8             1.1656     4.6925     0.0161 C.1     
   9 C9             1.1543     6.1244     0.0239 C.ar    
  10 C10           -0.0666     8.1943     0.0530 C.ar    
  11 C11           -0.0605     6.8156     0.0451 C.ar    
  12 C12            2.3585     6.8349     0.0162 C.ar    
  13 C13            2.3438     8.2124     0.0243 C.ar    
  14 C14            1.1340     8.8967     0.0404 C.ar    
  15 N15            1.1239    10.2969     0.0490 N.am    
  16 N16            1.1330    12.2903     1.3114 N.am    
  17 C17            1.1411    10.9498     1.2216 C.2     
  18 C18            1.1027    10.9684    -1.1235 C.2     
  19 C19            1.0930    12.4398    -1.0818 C.ar    
  20 C20            1.1063    13.0763     0.1728 C.ar    
  21 N21            1.0976    14.3965     0.2458 N.ar    
  22 C22            1.0708    13.2108    -2.2435 C.ar    
  23 C23            1.0627    14.5889    -2.1061 C.ar    
  24 C24            1.0718    15.1468    -0.8387 C.ar    
  25 O25            1.0922    10.3734    -2.1840 O.2     
  26 Cl26          -1.5742     9.0546     0.0793 Cl      
  27 O27            1.1647    10.2992     2.2482 O.2     
  28 H28           -0.9584     1.9035     0.0169 H       
  29 H29           -0.9266    -0.5554     0.0083 H       
  30 H30            1.2163    -1.7630    -0.0190 H       
  31 H31            3.3399    -0.5217    -0.0315 H       
  32 H32            3.3331     1.9375    -0.0182 H       
  33 H33           -0.9928     6.2705     0.0549 H       
  34 H34            3.2991     6.3044     0.0044 H       
  35 H35            3.2738     8.7615     0.0183 H       
  36 H36            1.1459    12.7122     2.1848 H       
  37 H37            1.0606    12.7480    -3.2193 H       
  38 H38            1.0460    15.2232    -2.9801 H       
  39 H39            1.0655    16.2218    -0.7359 H       
@<TRIPOS>BOND
   1    1    2 ar
   2    1    6 ar
   3    1   28 1
   4    2    3 ar
   5    2   29 1
   6    3    4 ar
   7    3   30 1
   8    4    5 ar
   9    4   31 1
  10    5    6 ar
  11    5   32 1
  12    6    7 1
  13    7    8 3
  14    8    9 1
  15    9   12 ar
  16    9   11 ar
  17   10   11 ar
  18   10   14 ar
  19   10   26 1
  20   11   33 1
  21   12   13 ar
  22   12   34 1
  23   13   14 ar
  24   13   35 1
  25   14   15 1
  26   15   18 am
  27   15   17 am
  28   16   17 am
  29   16   20 1
  30   16   36 1
  31   17   27 2
  32   18   19 1
  33   18   25 2
  34   19   22 ar
  35   19   20 ar
  36   20   21 ar
  37   21   24 ar
  38   22   23 ar
  39   22   37 1
  40   23   24 ar
  41   23   38 1
  42   24   39 1

#	End of record

