#	Name: ASD01918198
#	Creating user name:	WinNT
#	Creation time:	15. 06. 2019 20:11

#	Modifying user name:	WinNT
#	Modification time:	15. 06. 2019 20:11

#	Program:	/corina/corina34_cracker 3.40 0067  02.08.2006

@<TRIPOS>MOLECULE
ASD01918198
  53   56    0    0    0
SMALL
NO_CHARGES


@<TRIPOS>ATOM
   1 N1             0.7698     1.8334     2.5742 N.ar    
   2 C2             0.9250     0.5843     2.9589 C.ar    
   3 C3             1.8122    -0.2557     2.3079 C.ar    
   4 C4             2.5468     0.2285     1.2351 C.ar    
   5 C5             2.3653     1.5455     0.8502 C.ar    
   6 C6             1.4535     2.3372     1.5517 C.ar    
   7 N7             1.2624     3.6403     1.1836 N.2     
   8 N8             0.4210     4.3757     1.8280 N.2     
   9 C9             0.2304     5.6754     1.4609 C.ar    
  10 C10           -0.8664     7.7917     1.7867 C.ar    
  11 C11           -0.6774     6.4761     2.1623 C.ar    
  12 C12            0.9466     6.2127     0.3855 C.ar    
  13 C13            0.7532     7.5253     0.0164 C.ar    
  14 C14           -0.1526     8.3194     0.7099 C.ar    
  15 O15           -1.7476     8.5729     2.4664 O.3     
  16 C16           -2.4433     7.9675     3.5579 C.3     
  17 N17           -0.3455     9.6516     0.3307 N.am    
  18 C18           -0.9582     9.9385    -0.8349 C.2     
  19 C19            0.0813    10.6486     1.1309 C.2     
  20 O20           -1.2515    11.0875    -1.1005 O.2     
  21 C21           -1.2733     8.8561    -1.7897 C.ar    
  22 O22            0.0488    11.7984     0.7390 O.2     
  23 C23            0.5887    10.3436     2.4844 C.ar    
  24 C24            0.3938    11.2512     3.5275 C.ar    
  25 C25            0.8703    10.9601     4.7889 C.ar    
  26 C26            1.5403     9.7720     5.0216 C.ar    
  27 C27            1.7373     8.8683     3.9925 C.ar    
  28 C28            1.2603     9.1438     2.7278 C.ar    
  29 C29           -1.9328     6.5866    -2.2188 C.ar    
  30 C30           -1.6399     7.5927    -1.3217 C.ar    
  31 C31           -1.2115     9.0935    -3.1643 C.ar    
  32 C32           -1.5070     8.0784    -4.0503 C.ar    
  33 C33           -1.8644     6.8272    -3.5797 C.ar    
  34 H34            0.3524     0.2094     3.7944 H       
  35 H35            1.9316    -1.2789     2.6325 H       
  36 H36            3.2451    -0.4081     0.7121 H       
  37 H37            2.9210     1.9551     0.0197 H       
  38 H38           -1.2295     6.0663     2.9952 H       
  39 H39            1.6513     5.5980    -0.1549 H       
  40 H40            1.3069     7.9388    -0.8135 H       
  41 H41           -3.0238     7.1199     3.1936 H       
  42 H42           -1.7240     7.6227     4.3008 H       
  43 H43           -3.1127     8.6980     4.0121 H       
  44 H44           -0.1284    12.1792     3.3470 H       
  45 H45            0.7203    11.6612     5.5965 H       
  46 H46            1.9116     9.5492     6.0110 H       
  47 H47            2.2617     7.9432     4.1808 H       
  48 H48            1.4101     8.4352     1.9266 H       
  49 H49           -2.2161     5.6088    -1.8581 H       
  50 H50           -1.6936     7.4035    -0.2597 H       
  51 H51           -0.9334    10.0698    -3.5330 H       
  52 H52           -1.4595     8.2606    -5.1138 H       
  53 H53           -2.0947     6.0360    -4.2777 H       
@<TRIPOS>BOND
   1    1    2 ar
   2    1    6 ar
   3    2    3 ar
   4    2   34 1
   5    3    4 ar
   6    3   35 1
   7    4    5 ar
   8    4   36 1
   9    5    6 ar
  10    5   37 1
  11    6    7 1
  12    7    8 2
  13    8    9 1
  14    9   12 ar
  15    9   11 ar
  16   10   11 ar
  17   10   14 ar
  18   10   15 1
  19   11   38 1
  20   12   13 ar
  21   12   39 1
  22   13   14 ar
  23   13   40 1
  24   14   17 1
  25   15   16 1
  26   16   41 1
  27   16   42 1
  28   16   43 1
  29   17   18 am
  30   17   19 am
  31   18   20 2
  32   18   21 1
  33   19   22 2
  34   19   23 1
  35   21   31 ar
  36   21   30 ar
  37   23   24 ar
  38   23   28 ar
  39   24   25 ar
  40   24   44 1
  41   25   26 ar
  42   25   45 1
  43   26   27 ar
  44   26   46 1
  45   27   28 ar
  46   27   47 1
  47   28   48 1
  48   29   30 ar
  49   29   33 ar
  50   29   49 1
  51   30   50 1
  52   31   32 ar
  53   31   51 1
  54   32   33 ar
  55   32   52 1
  56   33   53 1

#	End of record

