#	Name: ASD02198857
#	Creating user name:	WinNT
#	Creation time:	15. 06. 2019 20:20

#	Modifying user name:	WinNT
#	Modification time:	15. 06. 2019 20:20

#	Program:	/corina/corina34_cracker 3.40 0067  02.08.2006

@<TRIPOS>MOLECULE
ASD02198857
  54   58    0    0    0
SMALL
NO_CHARGES


@<TRIPOS>ATOM
   1 F1             2.2519    -1.7081     2.4721 F       
   2 C2            -0.0435     1.5030    -0.1146 C.2     
   3 C3            -0.0736     0.1633     0.0980 C.2     
   4 N4             1.0706    -0.5386     0.2608 N.pl3   
   5 N5             2.2352    -0.0041     0.2270 N.2     
   6 C6             2.4071     1.2852     0.0284 C.2     
   7 C7             1.2216     2.1366    -0.1602 C.2     
   8 C8             0.9787    -1.9170     0.4773 C.ar    
   9 C9             1.5796    -2.4868     1.5963 C.ar    
  10 C10            1.4889    -3.8480     1.8109 C.ar    
  11 C11            0.7956    -4.6496     0.9065 C.ar    
  12 C12            0.1950    -4.0761    -0.2130 C.ar    
  13 C13            0.2827    -2.7162    -0.4219 C.ar    
  14 C14            3.7642     1.8671    -0.0039 C.2     
  15 N15            4.3067     2.6066    -1.0171 N.pl3   
  16 N16            5.6084     2.9584    -0.6387 N.2     
  17 C17            5.8516     2.4594     0.5470 C.2     
  18 C18            4.7195     1.7717     0.9842 C.2     
  19 C19            3.6744     2.9507    -2.2186 C.ar    
  20 C20            2.9126     2.0096    -2.8981 C.ar    
  21 C21            2.2898     2.3521    -4.0826 C.ar    
  22 C22            2.4249     3.6304    -4.5918 C.ar    
  23 C23            3.1835     4.5700    -3.9176 C.ar    
  24 C24            3.8035     4.2356    -2.7299 C.ar    
  25 O25            1.3249     3.3396    -0.3485 O.2     
  26 C26            0.6970    -6.1130     1.1348 C.2     
  27 C27            1.2509    -6.8261     2.2160 C.2     
  28 N28            0.9505    -8.0889     2.0659 N.2     
  29 N29            0.1994    -8.2313     0.8929 N.pl3   
  30 C30            0.0484    -7.0115     0.3384 C.2     
  31 C31           -0.3357    -9.4879     0.3629 C.3     
  32 F32           -0.6070   -10.3622     1.4208 F       
  33 F33           -1.5152    -9.2311    -0.3441 F       
  34 C34            7.1398     2.6079     1.3148 C.3     
  35 C35            3.3289     5.9618    -4.4768 C.3     
  36 F36            2.6123     6.0606    -5.6742 F       
  37 F37            2.8288     6.8889    -3.5561 F       
  38 F38            4.6808     6.2281    -4.7191 F       
  39 H39           -0.9547     2.0669    -0.2491 H       
  40 H40           -1.0236    -0.3489     0.1381 H       
  41 H41            1.9551    -4.2907     2.6787 H       
  42 H42           -0.3427    -4.6966    -0.9147 H       
  43 H43           -0.1829    -2.2725    -1.2896 H       
  44 H44            4.6133     1.2524     1.9252 H       
  45 H45            2.8072     1.0107    -2.5012 H       
  46 H46            1.6971     1.6205    -4.6116 H       
  47 H47            1.9374     3.8957    -5.5183 H       
  48 H48            4.3954     4.9698    -2.2036 H       
  49 H49            1.8242    -6.4028     3.0275 H       
  50 H50           -0.4831    -6.7872    -0.5746 H       
  51 H51            0.3967    -9.9417    -0.3048 H       
  52 H52            7.0919     3.5027     1.9353 H       
  53 H53            7.2877     1.7336     1.9487 H       
  54 H54            7.9715     2.6946     0.6156 H       
@<TRIPOS>BOND
   1    1    9 1
   2    2    3 2
   3    2    7 1
   4    2   39 1
   5    3    4 1
   6    3   40 1
   7    4    5 1
   8    4    8 1
   9    5    6 2
  10    6    7 1
  11    6   14 1
  12    7   25 2
  13    8    9 ar
  14    8   13 ar
  15    9   10 ar
  16   10   11 ar
  17   10   41 1
  18   11   12 ar
  19   11   26 1
  20   12   13 ar
  21   12   42 1
  22   13   43 1
  23   14   15 1
  24   14   18 2
  25   15   16 1
  26   15   19 1
  27   16   17 2
  28   17   18 1
  29   17   34 1
  30   18   44 1
  31   19   20 ar
  32   19   24 ar
  33   20   21 ar
  34   20   45 1
  35   21   22 ar
  36   21   46 1
  37   22   23 ar
  38   22   47 1
  39   23   24 ar
  40   23   35 1
  41   24   48 1
  42   26   27 1
  43   26   30 2
  44   27   28 2
  45   27   49 1
  46   28   29 1
  47   29   30 1
  48   29   31 1
  49   30   50 1
  50   31   32 1
  51   31   33 1
  52   31   51 1
  53   34   52 1
  54   34   53 1
  55   34   54 1
  56   35   36 1
  57   35   37 1
  58   35   38 1

#	End of record

