#	Name: ASD01811126
#	Creating user name:	WinNT
#	Creation time:	15. 06. 2019 19:26

#	Modifying user name:	WinNT
#	Modification time:	15. 06. 2019 19:26

#	Program:	/corina/corina34_cracker 3.40 0067  02.08.2006

@<TRIPOS>MOLECULE
ASD01811126
  52   55    0    0    0
SMALL
NO_CHARGES


@<TRIPOS>ATOM
   1 C1             5.8001     3.0796    -0.5968 C.2     
   2 C2             6.1185     1.7975    -0.1290 C.2     
   3 C3             5.1546     0.8323    -0.1068 C.2     
   4 C4             3.8588     1.1401    -0.5535 C.2     
   5 N5             3.5758     2.4004    -1.0056 N.am    
   6 C6             4.5471     3.3570    -1.0228 C.2     
   7 C7             2.8665     0.1499    -0.5318 C.2     
   8 C8             1.6045     0.4384    -0.9639 C.2     
   9 C9             1.3170     1.7355    -1.4276 C.2     
  10 C10            2.3364     2.7093    -1.4374 C.2     
  11 O11            2.0960     3.8360    -1.8372 O.2     
  12 C12           -0.0292     2.0706    -1.8972 C.2     
  13 O13           -0.2984     3.3159    -2.3405 O.3     
  14 O14           -0.9045     1.2260    -1.8875 O.2     
  15 C15            3.1936    -1.2335    -0.0316 C.3     
  16 N16            3.5401    -2.0962    -1.1690 N.3     
  17 C17            4.7619    -1.6216    -1.8380 C.3     
  18 C18            5.2758    -2.7321    -2.7548 C.3     
  19 C19            4.1568    -3.2359    -3.6297 C.ar    
  20 C20            2.8354    -2.9772    -3.3351 C.ar    
  21 C21            2.4332    -2.1713    -2.1279 C.3     
  22 C22            4.4805    -3.9780    -4.7557 C.ar    
  23 C23            3.4861    -4.4603    -5.5826 C.ar    
  24 C24            2.1603    -4.2031    -5.2864 C.ar    
  25 C25            1.8371    -3.4647    -4.1661 C.ar    
  26 C26            1.2455    -2.8224    -1.4674 C.2     
  27 O27            1.4128    -3.6327    -0.5868 O.2     
  28 O28            0.0016    -2.5024    -1.8574 O.3     
  29 C29           -2.4249    -2.6795    -1.7529 C.3     
  30 C30           -1.0945    -3.1688    -1.1771 C.3     
  31 H31            6.5569     3.8499    -0.6130 H       
  32 H32            7.1192     1.5752     0.2110 H       
  33 H33            5.3859    -0.1601     0.2508 H       
  34 H34            4.3130     4.3484    -1.3815 H       
  35 H35            0.8357    -0.3200    -0.9505 H       
  36 H36           -1.2012     3.4896    -2.6403 H       
  37 H37            4.0383    -1.1812     0.6553 H       
  38 H38            2.3284    -1.6463     0.4872 H       
  39 H39            4.5347    -0.7344    -2.4292 H       
  40 H40            5.5193    -1.3834    -1.0912 H       
  41 H41            6.0776    -2.3418    -3.3816 H       
  42 H42            5.6591    -3.5531    -2.1489 H       
  43 H43            2.1595    -1.1640    -2.4420 H       
  44 H44            5.5160    -4.1792    -4.9870 H       
  45 H45            3.7430    -5.0369    -6.4590 H       
  46 H46            1.3791    -4.5793    -5.9303 H       
  47 H47            0.8012    -3.2645    -3.9354 H       
  48 H48           -3.2477    -3.1798    -1.2423 H       
  49 H49           -2.5090    -1.6024    -1.6087 H       
  50 H50           -2.4658    -2.9078    -2.8179 H       
  51 H51           -1.0104    -4.2460    -1.3214 H       
  52 H52           -1.0536    -2.9406    -0.1121 H       
@<TRIPOS>BOND
   1    1    2 1
   2    1    6 2
   3    1   31 1
   4    2    3 2
   5    2   32 1
   6    3    4 1
   7    3   33 1
   8    4    5 1
   9    4    7 2
  10    5    6 1
  11    5   10 am
  12    6   34 1
  13    7    8 1
  14    7   15 1
  15    8    9 2
  16    8   35 1
  17    9   10 1
  18    9   12 1
  19   10   11 2
  20   12   13 1
  21   12   14 2
  22   13   36 1
  23   15   16 1
  24   15   37 1
  25   15   38 1
  26   16   17 1
  27   16   21 1
  28   17   18 1
  29   17   39 1
  30   17   40 1
  31   18   19 1
  32   18   41 1
  33   18   42 1
  34   19   20 ar
  35   19   22 ar
  36   20   21 1
  37   20   25 ar
  38   21   26 1
  39   21   43 1
  40   22   23 ar
  41   22   44 1
  42   23   24 ar
  43   23   45 1
  44   24   25 ar
  45   24   46 1
  46   25   47 1
  47   26   27 2
  48   26   28 1
  49   28   30 1
  50   29   30 1
  51   29   48 1
  52   29   49 1
  53   29   50 1
  54   30   51 1
  55   30   52 1

#	End of record

