#	Name: ASD02039372
#	Creating user name:	WinNT
#	Creation time:	15. 06. 2019 20:18

#	Modifying user name:	WinNT
#	Modification time:	15. 06. 2019 20:18

#	Program:	/corina/corina34_cracker 3.40 0067  02.08.2006

@<TRIPOS>MOLECULE
ASD02039372
  52   55    0    0    0
SMALL
NO_CHARGES


@<TRIPOS>ATOM
   1 C1            -0.1043     0.6718    -0.9064 C.ar    
   2 C2             0.2250    -0.6500    -1.1695 C.ar    
   3 C3            -0.7576    -1.5197    -1.6060 C.ar    
   4 C4            -2.3561     0.1436    -1.5238 C.ar    
   5 C5            -1.4166     1.0744    -1.0867 C.ar    
   6 C6            -3.7662     0.5593    -1.7224 C.ar    
   7 C7             0.9417     1.6460    -0.4289 C.3     
   8 N8             1.6683     2.1858    -1.5808 N.am    
   9 C9             1.1202     3.3221    -2.3256 C.3     
  10 C10            2.8410     1.6372    -1.9553 C.2     
  11 C11            3.3355     0.4243    -1.2809 C.2     
  12 C12            4.4370    -0.3006    -1.6306 C.2     
  13 N13            2.7814    -0.1723    -0.1946 N.2     
  14 C14            3.4909    -1.2176     0.1193 C.2     
  15 N15            4.5270    -1.3269    -0.7524 N.pl3   
  16 O16            3.4910     2.1433    -2.8500 O.2     
  17 C17            5.5567    -2.3690    -0.7441 C.3     
  18 C18           -4.1281     1.8972    -1.5734 C.ar    
  19 N19           -1.9979    -1.1091    -1.7747 N.ar    
  20 C20           -4.7312    -0.3849    -2.0638 C.ar    
  21 C21           -6.0464     0.0097    -2.2478 C.ar    
  22 C22           -6.3994     1.3429    -2.0924 C.ar    
  23 C23           -5.4407     2.2816    -1.7587 C.ar    
  24 C24            2.1006     4.4988    -2.4636 C.3     
  25 C25            1.5869     4.6555    -3.9045 C.3     
  26 C26            1.2187     3.1633    -3.8520 C.3     
  27 O27           -6.9910    -0.9089    -2.5810 O.3     
  28 C28           -8.3268    -0.4319    -2.7552 C.3     
  29 F29           -8.3518     0.5214    -3.7788 F       
  30 F30           -9.1634    -1.5010    -3.0931 F       
  31 F31           -8.7728     0.1510    -1.5642 F       
  32 H32            1.2391    -0.9963    -1.0351 H       
  33 H33           -0.5047    -2.5493    -1.8118 H       
  34 H34           -1.7095     2.0938    -0.8829 H       
  35 H35            0.4597     2.4609     0.1111 H       
  36 H36            1.6397     1.1339     0.2335 H       
  37 H37            0.1298     3.6173    -1.9789 H       
  38 H38            5.1084    -0.0952    -2.4513 H       
  39 H39            3.2900    -1.8879     0.9419 H       
  40 H40            5.2305    -3.2070    -1.3601 H       
  41 H41            6.4864    -1.9643    -1.1441 H       
  42 H42            5.7193    -2.7110     0.2780 H       
  43 H43           -3.3816     2.6329    -1.3127 H       
  44 H44           -4.4549    -1.4219    -2.1851 H       
  45 H45           -7.4251     1.6486    -2.2366 H       
  46 H46           -5.7205     3.3178    -1.6389 H       
  47 H47            1.8604     5.3450    -1.8199 H       
  48 H48            3.1482     4.2037    -2.4032 H       
  49 H49            0.7237     5.3154    -3.9910 H       
  50 H50            2.3714     4.8865    -4.6251 H       
  51 H51            2.0251     2.5031    -4.1712 H       
  52 H52            0.2665     2.9315    -4.3292 H       
@<TRIPOS>BOND
   1    1    2 ar
   2    1    7 1
   3    1    5 ar
   4    2    3 ar
   5    2   32 1
   6    3   19 ar
   7    3   33 1
   8    4    5 ar
   9    4    6 1
  10    4   19 ar
  11    5   34 1
  12    6   18 ar
  13    6   20 ar
  14    7    8 1
  15    7   35 1
  16    7   36 1
  17    8    9 1
  18    8   10 am
  19    9   24 1
  20    9   26 1
  21    9   37 1
  22   10   11 1
  23   10   16 2
  24   11   12 2
  25   11   13 1
  26   12   15 1
  27   12   38 1
  28   13   14 2
  29   14   15 1
  30   14   39 1
  31   15   17 1
  32   17   40 1
  33   17   41 1
  34   17   42 1
  35   18   23 ar
  36   18   43 1
  37   20   21 ar
  38   20   44 1
  39   21   22 ar
  40   21   27 1
  41   22   23 ar
  42   22   45 1
  43   23   46 1
  44   24   25 1
  45   24   47 1
  46   24   48 1
  47   25   26 1
  48   25   49 1
  49   25   50 1
  50   26   51 1
  51   26   52 1
  52   27   28 1
  53   28   29 1
  54   28   30 1
  55   28   31 1

#	End of record

