#	Name: ASD02198360
#	Creating user name:	WinNT
#	Creation time:	15. 06. 2019 20:19

#	Modifying user name:	WinNT
#	Modification time:	15. 06. 2019 20:19

#	Program:	/corina/corina34_cracker 3.40 0067  02.08.2006

@<TRIPOS>MOLECULE
ASD02198360
  37   39    0    0    0
SMALL
NO_CHARGES


@<TRIPOS>ATOM
   1 C1             0.0016     1.4016     0.2383 C.2     
   2 C2             0.0124     0.0162     0.2359 C.2     
   3 S3             1.6713     1.9493     0.1121 S.3     
   4 C4             2.2167     0.3308     0.0688 C.2     
   5 N5             1.2153    -0.4985     0.1439 N.2     
   6 N6            -1.1363    -0.7514     0.3223 N.pl3   
   7 C7            -1.1298     2.2172     0.3199 C.2     
   8 C8            -0.9799     3.7167     0.3110 C.3     
   9 O9            -2.2359     1.7170     0.3982 O.2     
  10 N10            3.5371    -0.0461    -0.0320 N.pl3   
  11 C11           -2.2714     4.3724    -0.2086 C.3     
  12 C12            3.8879    -1.3960     0.0630 C.ar    
  13 C13            4.9925    -1.8784    -0.6275 C.ar    
  14 C14            5.3362    -3.2125    -0.5315 C.ar    
  15 C15            4.5819    -4.0680     0.2504 C.ar    
  16 C16            3.4816    -3.5911     0.9390 C.ar    
  17 C17            3.1359    -2.2568     0.8524 C.ar    
  18 C18           -2.8011     5.2667     0.9313 C.3     
  19 C19           -1.5469     5.5748     1.7865 C.3     
  20 C20           -0.7700     4.2354     1.7486 C.3     
  21 H21           -2.0032    -0.3212     0.3886 H       
  22 H22           -1.0744    -1.7194     0.3165 H       
  23 H23           -0.1366     4.0037    -0.3171 H       
  24 H24            4.2240     0.6250    -0.1688 H       
  25 H25           -2.0546     4.9783    -1.0885 H       
  26 H26           -3.0065     3.6061    -0.4544 H       
  27 H27            5.5817    -1.2110    -1.2389 H       
  28 H28            6.1949    -3.5882    -1.0681 H       
  29 H29            4.8524    -5.1110     0.3232 H       
  30 H30            2.8943    -4.2619     1.5486 H       
  31 H31            2.2765    -1.8849     1.3904 H       
  32 H32           -3.2240     6.1872     0.5289 H       
  33 H33           -3.5438     4.7311     1.5226 H       
  34 H34           -0.9595     6.3750     1.3363 H       
  35 H35           -1.8290     5.8290     2.8082 H       
  36 H36           -1.1847     3.5332     2.4719 H       
  37 H37            0.2894     4.4033     1.9427 H       
@<TRIPOS>BOND
   1    1    2 2
   2    1    3 1
   3    1    7 1
   4    2    6 1
   5    2    5 1
   6    3    4 1
   7    4    5 2
   8    4   10 1
   9    6   21 1
  10    6   22 1
  11    7    8 1
  12    7    9 2
  13    8   11 1
  14    8   20 1
  15    8   23 1
  16   10   12 1
  17   10   24 1
  18   11   18 1
  19   11   25 1
  20   11   26 1
  21   12   13 ar
  22   12   17 ar
  23   13   14 ar
  24   13   27 1
  25   14   15 ar
  26   14   28 1
  27   15   16 ar
  28   15   29 1
  29   16   17 ar
  30   16   30 1
  31   17   31 1
  32   18   19 1
  33   18   32 1
  34   18   33 1
  35   19   20 1
  36   19   34 1
  37   19   35 1
  38   20   36 1
  39   20   37 1

#	End of record

