#	Name: ASD01871006
#	Creating user name:	WinNT
#	Creation time:	15. 06. 2019 19:39

#	Modifying user name:	WinNT
#	Modification time:	15. 06. 2019 19:39

#	Program:	/corina/corina34_cracker 3.40 0067  02.08.2006

@<TRIPOS>MOLECULE
ASD01871006
  39   41    0    0    0
SMALL
NO_CHARGES


@<TRIPOS>ATOM
   1 C1            -0.0167     1.3829     0.0096 C.ar    
   2 C2             0.0021    -0.0041     0.0020 C.ar    
   3 C3             1.2141    -0.6853    -0.0132 C.ar    
   4 C4             2.4020     0.0183    -0.0207 C.ar    
   5 C5             2.3843     1.4122    -0.0131 C.ar    
   6 C6             1.1677     2.0910     0.0021 C.ar    
   7 C7             3.6589     2.1716    -0.0207 C.2     
   8 C8             3.7847     3.3787    -0.6920 C.2     
   9 C9             5.0123     3.9482    -0.6028 C.2     
  10 S10            5.9534     2.8768     0.3589 S.3     
  11 N11            4.7210     1.7398     0.6104 N.2     
  12 C12            2.6495     4.0062    -1.4591 C.3     
  13 N13            5.4258     5.1519    -1.1727 N.am    
  14 C14            6.6889     5.5851    -0.9903 C.2     
  15 C15            7.1357     6.8859    -1.6061 C.3     
  16 O16            7.4661     4.9279    -0.3305 O.2     
  17 C17            8.1582     6.8153    -2.7421 C.3     
  18 C18            8.5815     7.3232    -1.3623 C.3     
  19 C19            8.8507     8.8219    -1.2132 C.3     
  20 O20           -1.1665    -0.6985     0.0099 O.3     
  21 C21           -2.3745     0.0646     0.0259 C.3     
  22 F22            1.2294    -2.0362    -0.0201 F       
  23 H23           -0.9597     1.9094     0.0170 H       
  24 H24            3.3436    -0.5106    -0.0322 H       
  25 H25            1.1515     3.1708     0.0077 H       
  26 H26            2.0808     4.6592    -0.7972 H       
  27 H27            3.0499     4.5891    -2.2885 H       
  28 H28            1.9966     3.2240    -1.8466 H       
  29 H29            4.8043     5.6774    -1.7003 H       
  30 H30            6.3761     7.6657    -1.6605 H       
  31 H31            8.5078     5.8280    -3.0440 H       
  32 H32            8.0715     7.5489    -3.5436 H       
  33 H33            9.2095     6.6700    -0.7564 H       
  34 H34            8.5431     9.3385    -2.1224 H       
  35 H35            8.2854     9.2100    -0.3659 H       
  36 H36            9.9152     8.9849    -1.0450 H       
  37 H37           -2.3985     0.6883     0.9196 H       
  38 H38           -2.4161     0.6978    -0.8603 H       
  39 H39           -3.2305    -0.6102     0.0308 H       
@<TRIPOS>BOND
   1    1    2 ar
   2    1    6 ar
   3    1   23 1
   4    2    3 ar
   5    2   20 1
   6    3    4 ar
   7    3   22 1
   8    4    5 ar
   9    4   24 1
  10    5    6 ar
  11    5    7 1
  12    6   25 1
  13    7    8 1
  14    7   11 2
  15    8    9 2
  16    8   12 1
  17    9   10 1
  18    9   13 1
  19   10   11 1
  20   12   26 1
  21   12   27 1
  22   12   28 1
  23   13   14 am
  24   13   29 1
  25   14   16 2
  26   14   15 1
  27   15   17 1
  28   15   18 1
  29   15   30 1
  30   17   18 1
  31   17   31 1
  32   17   32 1
  33   18   19 1
  34   18   33 1
  35   19   34 1
  36   19   35 1
  37   19   36 1
  38   20   21 1
  39   21   37 1
  40   21   38 1
  41   21   39 1

#	End of record

