#	Name: ASD01882197
#	Creating user name:	WinNT
#	Creation time:	15. 06. 2019 19:44

#	Modifying user name:	WinNT
#	Modification time:	15. 06. 2019 19:44

#	Program:	/corina/corina34_cracker 3.40 0067  02.08.2006

@<TRIPOS>MOLECULE
ASD01882197
  51   54    0    0    0
SMALL
NO_CHARGES


@<TRIPOS>ATOM
   1 C1             0.7474     1.4346     1.0733 C.2     
   2 C2             0.7959     0.0149     1.0935 C.2     
   3 C3             1.2502    -0.6599    -0.0458 C.2     
   4 C4             1.6438     0.0862    -1.1727 C.2     
   5 C5             1.5833     1.4334    -1.1532 C.2     
   6 N6             1.1435     2.1075    -0.0524 N.pl3   
   7 N7             0.3765     2.3226     1.9833 N.2     
   8 C8             0.5106     3.5523     1.4889 C.2     
   9 C9             0.9905     3.4555     0.2133 C.2     
  10 C10            0.3881    -0.7123     2.2577 C.1     
  11 N11            0.0646    -1.2892     3.1813 N.1     
  12 C12            1.2892     4.5688    -0.6983 C.2     
  13 C13            0.9976     5.8176    -0.3417 C.2     
  14 C14            1.4096     6.9686    -1.2230 C.3     
  15 C15            0.1815     7.8148    -1.5642 C.3     
  16 F16           -0.3858     8.3100    -0.3851 F       
  17 F17            0.5640     8.8833    -2.3822 F       
  18 F18           -0.7568     7.0248    -2.2372 F       
  19 N19            1.3120    -2.0402    -0.0638 N.pl3   
  20 C20            2.6016    -2.7302    -0.2035 C.3     
  21 C21            2.5111    -3.7121    -1.3758 C.3     
  22 C22            1.3182    -4.6467    -1.1623 C.3     
  23 C23            0.0269    -3.8265    -1.1184 C.3     
  24 C24            0.0898    -2.8459     0.0625 C.3     
  25 C25            1.2463    -5.6361    -2.2967 C.ar    
  26 C26            1.3347    -6.9913    -2.0386 C.ar    
  27 C27            1.2688    -7.8988    -3.0792 C.ar    
  28 C28            1.1139    -7.4513    -4.3778 C.ar    
  29 C29            1.0245    -6.0962    -4.6359 C.ar    
  30 C30            1.0861    -5.1888    -3.5948 C.ar    
  31 H31            1.9964    -0.4229    -2.0575 H       
  32 H32            1.8897     1.9895    -2.0269 H       
  33 H33            0.2816     4.4705     2.0094 H       
  34 H34            1.7453     4.3737    -1.6577 H       
  35 H35            0.4657     6.0060     0.5791 H       
  36 H36            2.1406     7.5840    -0.6986 H       
  37 H37            1.8517     6.5827    -2.1416 H       
  38 H38            3.3874    -2.0002    -0.3981 H       
  39 H39            2.8255    -3.2754     0.7134 H       
  40 H40            2.3775    -3.1580    -2.3049 H       
  41 H41            3.4280    -4.2990    -1.4303 H       
  42 H42            1.4405    -5.1822    -0.2208 H       
  43 H43           -0.0834    -3.2714    -2.0499 H       
  44 H44           -0.8244    -4.4950    -0.9897 H       
  45 H45            0.1131    -3.4004     1.0007 H       
  46 H46           -0.7823    -2.1924     0.0435 H       
  47 H47            1.4557    -7.3409    -1.0239 H       
  48 H48            1.3386    -8.9576    -2.8775 H       
  49 H49            1.0630    -8.1603    -5.1909 H       
  50 H50            0.9038    -5.7465    -5.6506 H       
  51 H51            1.0126    -4.1303    -3.7961 H       
@<TRIPOS>BOND
   1    1    2 1
   2    1    6 1
   3    1    7 2
   4    2    3 2
   5    2   10 1
   6    3    4 1
   7    3   19 1
   8    4    5 2
   9    4   31 1
  10    5    6 1
  11    5   32 1
  12    6    9 1
  13    7    8 1
  14    8    9 2
  15    8   33 1
  16    9   12 1
  17   10   11 3
  18   12   13 2
  19   12   34 1
  20   13   14 1
  21   13   35 1
  22   14   15 1
  23   14   36 1
  24   14   37 1
  25   15   16 1
  26   15   17 1
  27   15   18 1
  28   19   20 1
  29   19   24 1
  30   20   21 1
  31   20   38 1
  32   20   39 1
  33   21   22 1
  34   21   40 1
  35   21   41 1
  36   22   23 1
  37   22   25 1
  38   22   42 1
  39   23   24 1
  40   23   43 1
  41   23   44 1
  42   24   45 1
  43   24   46 1
  44   25   26 ar
  45   25   30 ar
  46   26   27 ar
  47   26   47 1
  48   27   28 ar
  49   27   48 1
  50   28   29 ar
  51   28   49 1
  52   29   30 ar
  53   29   50 1
  54   30   51 1

#	End of record

