#	Name: ASD01028123
#	Creating user name:	WinNT
#	Creation time:	15. 06. 2019 18:56

#	Modifying user name:	WinNT
#	Modification time:	15. 06. 2019 18:56

#	Program:	/corina/corina34_cracker 3.40 0067  02.08.2006

@<TRIPOS>MOLECULE
ASD01028123
  52   53    0    0    0
SMALL
NO_CHARGES


@<TRIPOS>ATOM
   1 N1            -0.1541     2.3317    -1.2587 N.am    
   2 C2            -0.1010     1.0248    -1.7630 C.ar    
   3 C3            -1.0189     0.0766    -1.3337 C.ar    
   4 C4            -2.0731     0.4522    -0.3244 C.3     
   5 C5             0.8683     0.6782    -2.6987 C.ar    
   6 C6             0.9159    -0.6195    -3.1959 C.ar    
   7 C7            -0.0025    -1.5616    -2.7570 C.ar    
   8 C8            -0.9675    -1.2119    -1.8313 C.ar    
   9 O9             1.8668     1.4063    -3.2802 O.3     
  10 C10            2.7784     0.4368    -3.8303 C.3     
  11 O11            1.9438    -0.7073    -4.0901 O.3     
  12 N12           -3.1030     1.2735    -0.9746 N.3     
  13 C13           -3.9649     0.4527    -1.8356 C.3     
  14 C14           -3.8974     2.0064     0.0202 C.3     
  15 C15           -4.3721     1.0394     1.1067 C.3     
  16 C16           -3.0502     3.0856     0.6435 C.2     
  17 O17           -3.6249     4.2075     1.1049 O.3     
  18 O18           -1.8536     2.9411     0.7279 O.2     
  19 C19           -2.7475     5.2040     1.6926 C.3     
  20 C20            0.9799     2.9555    -0.8826 C.2     
  21 O21            2.0348     2.3523    -0.8854 O.2     
  22 O22            0.9439     4.2471    -0.5038 O.3     
  23 C23            2.2032     4.8544    -0.1116 C.3     
  24 C24            3.1841     4.7971    -1.2843 C.3     
  25 C25            1.9648     6.3133     0.2831 C.3     
  26 C26            2.7875     4.0927     1.0797 C.3     
  27 H27           -1.0065     2.7885    -1.1842 H       
  28 H28           -2.5298    -0.4522     0.0776 H       
  29 H29           -1.6146     1.0188     0.4861 H       
  30 H30            0.0338    -2.5697    -3.1426 H       
  31 H31           -1.6804    -1.9489    -1.4922 H       
  32 H32            3.2194     0.8075    -4.7556 H       
  33 H33            3.5553     0.1881    -3.1073 H       
  34 H34           -4.4629    -0.3068    -1.2329 H       
  35 H35           -4.7128     1.0870    -2.3115 H       
  36 H36           -3.3585    -0.0311    -2.6013 H       
  37 H37           -4.7616     2.4585    -0.4665 H       
  38 H38           -4.9616     1.5832     1.8448 H       
  39 H39           -4.9849     0.2588     0.6559 H       
  40 H40           -3.5079     0.5872     1.5934 H       
  41 H41           -3.3382     6.0579     2.0242 H       
  42 H42           -2.2251     4.7704     2.5454 H       
  43 H43           -2.0206     5.5316     0.9495 H       
  44 H44            2.7678     5.3398    -2.1330 H       
  45 H45            4.1294     5.2530    -0.9899 H       
  46 H46            3.3539     3.7578    -1.5655 H       
  47 H47            1.2659     6.3541     1.1186 H       
  48 H48            2.9101     6.7691     0.5776 H       
  49 H49            1.5485     6.8559    -0.5656 H       
  50 H50            2.9573     3.0534     0.7985 H       
  51 H51            3.7328     4.5485     1.3742 H       
  52 H52            2.0887     4.1335     1.9152 H       
@<TRIPOS>BOND
   1    1    2 1
   2    1   20 am
   3    1   27 1
   4    2    3 ar
   5    2    5 ar
   6    3    4 1
   7    3    8 ar
   8    4   12 1
   9    4   28 1
  10    4   29 1
  11    5    6 ar
  12    5    9 1
  13    6    7 ar
  14    6   11 1
  15    7    8 ar
  16    7   30 1
  17    8   31 1
  18    9   10 1
  19   10   11 1
  20   10   32 1
  21   10   33 1
  22   12   13 1
  23   12   14 1
  24   13   34 1
  25   13   35 1
  26   13   36 1
  27   14   15 1
  28   14   16 1
  29   14   37 1
  30   15   38 1
  31   15   39 1
  32   15   40 1
  33   16   17 1
  34   16   18 2
  35   17   19 1
  36   19   41 1
  37   19   42 1
  38   19   43 1
  39   20   21 2
  40   20   22 1
  41   22   23 1
  42   23   24 1
  43   23   25 1
  44   23   26 1
  45   24   44 1
  46   24   45 1
  47   24   46 1
  48   25   47 1
  49   25   48 1
  50   25   49 1
  51   26   50 1
  52   26   51 1
  53   26   52 1

#	End of record

