#	Name: ASD02560181
#	Creating user name:	WinNT
#	Creation time:	15. 06. 2019 20:24

#	Modifying user name:	WinNT
#	Modification time:	15. 06. 2019 20:24

#	Program:	/corina/corina34_cracker 3.40 0067  02.08.2006

@<TRIPOS>MOLECULE
ASD02560181
  56   60    0    0    0
SMALL
NO_CHARGES


@<TRIPOS>ATOM
   1 Cl1            1.8461     2.3366    -1.5801 Cl      
   2 N2             0.0493     1.2673     0.1170 N.2     
   3 N3            -0.0243     0.0355     0.0664 N.2     
   4 C4             1.4459     1.7186     0.0658 C.3     
   5 N5             2.2468     0.5064     0.3717 N.3     
   6 C6             1.3090    -0.5729    -0.0284 C.3     
   7 S7             1.4434    -1.9802     1.1084 S.3     
   8 C8             1.0082    -1.2524     2.7120 C.3     
   9 C9             1.0745    -2.3136     3.7798 C.2     
  10 O10            1.3847    -3.4492     3.4878 O.2     
  11 N11            0.7890    -2.0009     5.0593 N.am    
  12 C12            3.4085     0.4685    -0.3963 C.ar    
  13 C13            0.7714    -3.0021     6.0374 C.ar    
  14 C14           -0.0189    -2.8545     7.1712 C.ar    
  15 C15           -0.0340    -3.8453     8.1344 C.ar    
  16 C16            0.7362    -4.9824     7.9706 C.ar    
  17 C17            1.5232    -5.1316     6.8437 C.ar    
  18 C18            1.5389    -4.1473     5.8744 C.ar    
  19 Cl19          -0.9853    -1.4272     7.3774 Cl      
  20 S20            0.7148    -6.2433     9.2011 S.o2    
  21 O21            1.9355    -6.9578     9.0648 O.2     
  22 O22            0.3121    -5.6164    10.4111 O.2     
  23 C23            4.6723     0.6085     0.2164 C.ar    
  24 C24            3.3345     0.2882    -1.7613 C.ar    
  25 C25            4.4888     0.2485    -2.5373 C.ar    
  26 C26            5.7205     0.3856    -1.9729 C.ar    
  27 C27            5.8401     0.5664    -0.5846 C.ar    
  28 N28           -0.4937    -7.3012     8.7979 N.am    
  29 C29            6.9548     0.3383    -2.8362 C.3     
  30 C30            7.2064    -0.9392    -3.6398 C.3     
  31 C31            6.7563     0.3372    -4.3533 C.3     
  32 C32            7.0985     0.7112     0.0250 C.ar    
  33 C33            7.1780     0.8852     1.3725 C.ar    
  34 C34            6.0290     0.9221     2.1599 C.ar    
  35 C35            4.7936     0.7890     1.6030 C.ar    
  36 H36            1.6233     2.4899     0.8153 H       
  37 H37            1.5096    -0.8900    -1.0518 H       
  38 H38            1.7096    -0.4528     2.9504 H       
  39 H39           -0.0025    -0.8470     2.6647 H       
  40 H40            0.5956    -1.0820     5.3025 H       
  41 H41           -0.6474    -3.7316     9.0159 H       
  42 H42            2.1236    -6.0207     6.7193 H       
  43 H43            2.1540    -4.2649     4.9945 H       
  44 H44            2.3697     0.1763    -2.2335 H       
  45 H45            4.4065     0.1062    -3.6047 H       
  46 H46           -1.0270    -7.1480     8.0023 H       
  47 H47           -0.6684    -8.0741     9.3574 H       
  48 H48            7.8243     0.8646    -2.4424 H       
  49 H49            8.2414    -1.2531    -3.7750 H       
  50 H50            6.4791    -1.7454    -3.5440 H       
  51 H51            5.7329     0.3708    -4.7269 H       
  52 H52            7.4952     0.8631    -4.9579 H       
  53 H53            7.9975     0.6842    -0.5728 H       
  54 H54            8.1460     0.9958     1.8385 H       
  55 H55            6.1194     1.0614     3.2271 H       
  56 H56            3.9115     0.8196     2.2255 H       
@<TRIPOS>BOND
   1    1    4 1
   2    2    3 2
   3    2    4 1
   4    3    6 1
   5    4    5 1
   6    4   36 1
   7    5    6 1
   8    5   12 1
   9    6    7 1
  10    6   37 1
  11    7    8 1
  12    8    9 1
  13    8   38 1
  14    8   39 1
  15    9   10 2
  16    9   11 am
  17   11   13 1
  18   11   40 1
  19   12   23 ar
  20   12   24 ar
  21   13   14 ar
  22   13   18 ar
  23   14   15 ar
  24   14   19 1
  25   15   16 ar
  26   15   41 1
  27   16   17 ar
  28   16   20 1
  29   17   18 ar
  30   17   42 1
  31   18   43 1
  32   20   21 2
  33   20   22 2
  34   20   28 am
  35   23   27 ar
  36   23   35 ar
  37   24   25 ar
  38   24   44 1
  39   25   26 ar
  40   25   45 1
  41   26   27 ar
  42   26   29 1
  43   27   32 ar
  44   28   46 1
  45   28   47 1
  46   29   30 1
  47   29   31 1
  48   29   48 1
  49   30   31 1
  50   30   49 1
  51   30   50 1
  52   31   51 1
  53   31   52 1
  54   32   33 ar
  55   32   53 1
  56   33   34 ar
  57   33   54 1
  58   34   35 ar
  59   34   55 1
  60   35   56 1

#	End of record

