#	Name: ASD01914849
#	Creating user name:	WinNT
#	Creation time:	15. 06. 2019 20:04

#	Modifying user name:	WinNT
#	Modification time:	15. 06. 2019 20:04

#	Program:	/corina/corina34_cracker 3.40 0067  02.08.2006

@<TRIPOS>MOLECULE
ASD01914849
  36   37    0    0    0
SMALL
NO_CHARGES


@<TRIPOS>ATOM
   1 C1            -0.0168     1.3895     0.0097 C.ar    
   2 C2             0.0021    -0.0041     0.0020 C.ar    
   3 C3             1.2343    -0.6631    -0.0133 C.ar    
   4 C4             2.3881     0.1020    -0.0202 C.ar    
   5 C5             2.2854     1.4809    -0.0118 C.ar    
   6 N6             1.1078     2.0752     0.0026 N.ar    
   7 N7            -2.7962    -2.3174    -0.3491 N.pl3   
   8 N8            -1.4778    -1.9197    -0.6045 N.2     
   9 C9            -1.2651    -0.7751     0.0104 C.2     
  10 C10           -2.4536    -0.4100     0.6801 C.2     
  11 C11           -3.3760    -1.3748     0.4418 C.2     
  12 S12           -2.6945     1.0398     1.6520 S.3     
  13 C13           -4.4153     0.8801     2.2034 C.3     
  14 C14           -4.7857     2.0827     3.0738 C.3     
  15 O15           -6.1413     1.9569     3.5081 O.3     
  16 C16           -6.5899     3.0347     4.3321 C.3     
  17 C17           -8.0463     2.7960     4.7358 C.3     
  18 O18           -8.1275     1.6311     5.5595 O.3     
  19 C19           -9.4523     1.3175     5.9938 C.3     
  20 H20           -0.9621     1.9118     0.0170 H       
  21 H21            1.2852    -1.7419    -0.0192 H       
  22 H22            3.3580    -0.3730    -0.0316 H       
  23 H23            3.1835     2.0808    -0.0171 H       
  24 H24           -3.2228    -3.1225    -0.6817 H       
  25 H25           -4.3898    -1.3919     0.8136 H       
  26 H26           -5.0732     0.8438     1.3350 H       
  27 H27           -4.5277    -0.0362     2.7829 H       
  28 H28           -4.1278     2.1190     3.9421 H       
  29 H29           -4.6733     2.9990     2.4942 H       
  30 H30           -5.9695     3.0908     5.2266 H       
  31 H31           -6.5150     3.9707     3.7787 H       
  32 H32           -8.4160     3.6590     5.2895 H       
  33 H33           -8.6522     2.6514     3.8413 H       
  34 H34           -9.4289     0.4212     6.6136 H       
  35 H35           -9.8512     2.1499     6.5736 H       
  36 H36          -10.0874     1.1423     5.1254 H       
@<TRIPOS>BOND
   1    1    2 ar
   2    1    6 ar
   3    1   20 1
   4    2    3 ar
   5    2    9 1
   6    3    4 ar
   7    3   21 1
   8    4    5 ar
   9    4   22 1
  10    5    6 ar
  11    5   23 1
  12    7    8 1
  13    7   11 1
  14    7   24 1
  15    8    9 2
  16    9   10 1
  17   10   11 2
  18   10   12 1
  19   11   25 1
  20   12   13 1
  21   13   14 1
  22   13   26 1
  23   13   27 1
  24   14   15 1
  25   14   28 1
  26   14   29 1
  27   15   16 1
  28   16   17 1
  29   16   30 1
  30   16   31 1
  31   17   18 1
  32   17   32 1
  33   17   33 1
  34   18   19 1
  35   19   34 1
  36   19   35 1
  37   19   36 1

#	End of record

