#	Name: ASD03240617
#	Creating user name:	WinNT
#	Creation time:	15. 06. 2019 20:35

#	Modifying user name:	WinNT
#	Modification time:	15. 06. 2019 20:35

#	Program:	/corina/corina34_cracker 3.40 0067  02.08.2006

@<TRIPOS>MOLECULE
ASD03240617
  65   71    0    0    0
SMALL
NO_CHARGES


@<TRIPOS>ATOM
   1 C1            -0.0166     1.3755     0.0096 C.ar    
   2 C2             0.0021    -0.0041     0.0020 C.ar    
   3 N3             1.1422    -0.6683    -0.0058 N.ar    
   4 C4             2.3145    -0.0482    -0.0058 C.ar    
   5 C5             2.3702     1.3442    -0.0124 C.ar    
   6 C6             1.1860     2.0698     0.0019 C.ar    
   7 N7             3.4819    -0.8059     0.0219 N.pl3   
   8 C8             4.3591    -0.7194     1.0994 C.ar    
   9 C9             4.9950     0.4889     1.4034 C.ar    
  10 C10            4.7634     1.6835     0.5619 C.2     
  11 N11            3.5937     2.0277    -0.0512 N.pl3   
  12 C12            4.6053    -1.8393     1.8826 C.ar    
  13 C13            5.4651    -1.7539     2.9609 C.ar    
  14 C14            6.0856    -0.5557     3.2700 C.ar    
  15 C15            5.8560     0.5652     2.4980 C.ar    
  16 N16            5.6748     2.5937     0.2854 N.2     
  17 C17            5.1442     3.5398    -0.5061 C.2     
  18 C18            3.8211     3.2022    -0.7366 C.2     
  19 C19            2.8474     3.9506    -1.5543 C.ar    
  20 C20            2.7471     5.3387    -1.4310 C.ar    
  21 C21            2.0252     3.2752    -2.4599 C.ar    
  22 C22            1.1172     3.9813    -3.2209 C.ar    
  23 C23            1.0198     5.3555    -3.0896 C.ar    
  24 C24            1.8345     6.0317    -2.1986 C.ar    
  25 C25            5.8461     4.7287    -1.0353 C.ar    
  26 C26            0.0259     6.1200    -3.9255 C.3     
  27 C27            6.8196     5.3780    -0.2673 C.ar    
  28 C28            7.4487     6.4851    -0.8038 C.ar    
  29 C29            7.0954     6.9157    -2.0836 C.ar    
  30 N30            6.1658     6.2750    -2.7858 N.ar    
  31 C31            5.5502     5.2169    -2.3136 C.ar    
  32 N32           -1.0324     5.2642    -4.4784 N.3     
  33 C33           -0.5043     7.3918    -3.2426 C.3     
  34 C34           -0.4094     8.0748    -4.6171 C.3     
  35 C35            0.6786     7.0455    -4.9658 C.3     
  36 O36            7.4279     8.5218    -3.8999 O.3     
  37 C37            7.7624     8.0988    -2.6652 C.2     
  38 O38            8.6125     8.6902    -2.0302 O.2     
  39 C39            8.1241     9.6905    -4.4075 C.3     
  40 H40           -0.9556     1.9091     0.0170 H       
  41 H41           -0.9306    -0.5486     0.0028 H       
  42 H42            1.2002     3.1497     0.0068 H       
  43 H43            3.6863    -1.3999    -0.7172 H       
  44 H44            4.1241    -2.7775     1.6491 H       
  45 H45            5.6540    -2.6278     3.5668 H       
  46 H46            6.7517    -0.4977     4.1181 H       
  47 H47            6.3414     1.4989     2.7410 H       
  48 H48            3.3823     5.8677    -0.7360 H       
  49 H49            2.1007     2.2029    -2.5639 H       
  50 H50            0.4810     3.4606    -3.9213 H       
  51 H51            1.7528     7.1042    -2.1010 H       
  52 H52            7.0726     5.0226     0.7206 H       
  53 H53            8.2046     7.0111    -0.2395 H       
  54 H54            4.8004     4.7228    -2.9137 H       
  55 H55           -0.6406     4.4558    -4.9378 H       
  56 H56           -1.6876     4.9905    -3.7615 H       
  57 H57           -1.5250     7.2955    -2.8724 H       
  58 H58            0.1786     7.8062    -2.5010 H       
  59 H59           -1.3135     7.9749    -5.2177 H       
  60 H60           -0.0419     9.0999    -4.5708 H       
  61 H61            1.6850     7.3652    -4.6954 H       
  62 H62            0.6129     6.6696    -5.9869 H       
  63 H63            7.7609     9.9236    -5.4084 H       
  64 H64            7.9400    10.5383    -3.7476 H       
  65 H65            9.1942     9.4870    -4.4476 H       
@<TRIPOS>BOND
   1    1    2 ar
   2    1    6 ar
   3    1   40 1
   4    2    3 ar
   5    2   41 1
   6    3    4 ar
   7    4    5 ar
   8    4    7 1
   9    5    6 ar
  10    5   11 1
  11    6   42 1
  12    7    8 1
  13    7   43 1
  14    8    9 ar
  15    8   12 ar
  16    9   10 1
  17    9   15 ar
  18   10   11 1
  19   10   16 2
  20   11   18 1
  21   12   13 ar
  22   12   44 1
  23   13   14 ar
  24   13   45 1
  25   14   15 ar
  26   14   46 1
  27   15   47 1
  28   16   17 1
  29   17   18 2
  30   17   25 1
  31   18   19 1
  32   19   20 ar
  33   19   21 ar
  34   20   24 ar
  35   20   48 1
  36   21   22 ar
  37   21   49 1
  38   22   23 ar
  39   22   50 1
  40   23   24 ar
  41   23   26 1
  42   24   51 1
  43   25   27 ar
  44   25   31 ar
  45   26   33 1
  46   26   32 1
  47   26   35 1
  48   27   28 ar
  49   27   52 1
  50   28   29 ar
  51   28   53 1
  52   29   30 ar
  53   29   37 1
  54   30   31 ar
  55   31   54 1
  56   32   55 1
  57   32   56 1
  58   33   34 1
  59   33   57 1
  60   33   58 1
  61   34   35 1
  62   34   59 1
  63   34   60 1
  64   35   61 1
  65   35   62 1
  66   36   37 1
  67   36   39 1
  68   37   38 2
  69   39   63 1
  70   39   64 1
  71   39   65 1

#	End of record

