#	Name: ASD01148429
#	Creating user name:	WinNT
#	Creation time:	15. 06. 2019 19:02

#	Modifying user name:	WinNT
#	Modification time:	15. 06. 2019 19:02

#	Program:	/corina/corina34_cracker 3.40 0067  02.08.2006

@<TRIPOS>MOLECULE
ASD01148429
  61   64    0    0    0
SMALL
NO_CHARGES


@<TRIPOS>ATOM
   1 C1            -0.0167     1.5749    -0.1084 C.ar    
   2 C2             0.0149     0.1914    -0.1462 C.ar    
   3 C3            -1.1674    -0.5270    -0.1474 C.ar    
   4 C4            -2.3792     0.1366    -0.1108 C.ar    
   5 C5            -2.4108     1.5183    -0.0730 C.ar    
   6 C6            -1.2305     2.2374    -0.0665 C.ar    
   7 C7            -3.7328     2.2406    -0.0336 C.3     
   8 O8            -4.7262     1.4613     0.6632 O.3     
   9 C9            -3.6465     3.5060     0.8526 C.3     
  10 C10           -4.1251     2.9984     2.1996 C.2     
  11 N11           -4.7093     1.8615     2.0192 N.2     
  12 C12           -3.9524     3.6862     3.4941 C.ar    
  13 C13           -4.4443     3.1043     4.6656 C.ar    
  14 C14           -3.2923     4.9163     3.5490 C.ar    
  15 C15           -3.1312     5.5578     4.7563 C.ar    
  16 C16           -3.6280     4.9788     5.9267 C.ar    
  17 C17           -4.2833     3.7456     5.8726 C.ar    
  18 C18           -3.4552     5.6671     7.2222 C.2     
  19 O19           -4.4267     6.0725     7.8291 O.2     
  20 N20           -2.2200     5.8455     7.7310 N.am    
  21 C21           -4.8195     3.1212     7.1350 C.3     
  22 C22           -4.2042     2.5915    -1.4463 C.3     
  23 F23           -4.3390     1.4192    -2.1977 F       
  24 F24           -5.4390     3.2455    -1.3769 F       
  25 F25           -3.2656     3.4309    -2.0560 F       
  26 Cl26           1.5373    -0.6416    -0.1927 Cl      
  27 Cl27           1.4660     2.4778    -0.1062 Cl      
  28 C28           -2.0366     6.6419     8.9469 C.3     
  29 C29           -2.1303     5.7446    10.1540 C.ar    
  30 N30           -3.3121     5.4619    10.6657 N.ar    
  31 C31           -1.1535     5.2911     7.1213 C.2     
  32 C32           -3.4423     4.6816    11.7210 C.ar    
  33 C33           -2.3333     4.1288    12.3325 C.ar    
  34 C34           -1.0733     4.4035    11.8226 C.ar    
  35 C35           -0.9766     5.2230    10.7086 C.ar    
  36 O36           -1.2940     4.7026     6.0680 O.2     
  37 O37            0.0673     5.3897     7.6795 O.3     
  38 C38            1.1699     4.7688     6.9673 C.3     
  39 C39           -1.1340    -2.0331    -0.1890 C.3     
  40 F40           -2.4422    -2.5289    -0.1822 F       
  41 F41           -0.4822    -2.4530    -1.3535 F       
  42 F42           -0.4466    -2.5154     0.9299 F       
  43 H43           -3.3020    -0.4245    -0.1121 H       
  44 H44           -1.2559     3.3167    -0.0369 H       
  45 H45           -2.6189     3.8640     0.9169 H       
  46 H46           -4.3068     4.2875     0.4768 H       
  47 H47           -4.9510     2.1515     4.6237 H       
  48 H48           -2.9080     5.3637     2.6442 H       
  49 H49           -2.6206     6.5085     4.7987 H       
  50 H50           -5.8113     3.5214     7.3454 H       
  51 H51           -4.8834     2.0406     7.0071 H       
  52 H52           -4.1517     3.3500     7.9655 H       
  53 H53           -1.0570     7.1193     8.9242 H       
  54 H54           -2.8121     7.4060     9.0011 H       
  55 H55           -4.4271     4.4726    12.1119 H       
  56 H56           -2.4464     3.4912    13.1968 H       
  57 H57           -0.1887     3.9858    12.2801 H       
  58 H58           -0.0114     5.4578    10.2846 H       
  59 H59            0.9803     3.7004     6.8644 H       
  60 H60            1.2628     5.2183     5.9786 H       
  61 H61            2.0943     4.9218     7.5242 H       
@<TRIPOS>BOND
   1    1    2 ar
   2    1   27 1
   3    1    6 ar
   4    2    3 ar
   5    2   26 1
   6    3    4 ar
   7    3   39 1
   8    4    5 ar
   9    4   43 1
  10    5    6 ar
  11    5    7 1
  12    6   44 1
  13    7    8 1
  14    7    9 1
  15    7   22 1
  16    8   11 1
  17    9   10 1
  18    9   45 1
  19    9   46 1
  20   10   11 2
  21   10   12 1
  22   12   13 ar
  23   12   14 ar
  24   13   17 ar
  25   13   47 1
  26   14   15 ar
  27   14   48 1
  28   15   16 ar
  29   15   49 1
  30   16   17 ar
  31   16   18 1
  32   17   21 1
  33   18   19 2
  34   18   20 am
  35   20   28 1
  36   20   31 am
  37   21   50 1
  38   21   51 1
  39   21   52 1
  40   22   23 1
  41   22   24 1
  42   22   25 1
  43   28   29 1
  44   28   53 1
  45   28   54 1
  46   29   30 ar
  47   29   35 ar
  48   30   32 ar
  49   31   36 2
  50   31   37 1
  51   32   33 ar
  52   32   55 1
  53   33   34 ar
  54   33   56 1
  55   34   35 ar
  56   34   57 1
  57   35   58 1
  58   37   38 1
  59   38   59 1
  60   38   60 1
  61   38   61 1
  62   39   40 1
  63   39   41 1
  64   39   42 1

#	End of record

