#	Name: ASD01910115
#	Creating user name:	WinNT
#	Creation time:	15. 06. 2019 19:55

#	Modifying user name:	WinNT
#	Modification time:	15. 06. 2019 19:55

#	Program:	/corina/corina34_cracker 3.40 0067  02.08.2006

@<TRIPOS>MOLECULE
ASD01910115
  42   45    0    0    0
SMALL
NO_CHARGES


@<TRIPOS>ATOM
   1 C1             0.1136     0.5049     0.4053 C.ar    
   2 C2             0.3446    -0.8594     0.4519 C.ar    
   3 C3             1.6412    -1.3558     0.3876 C.ar    
   4 C4             2.7064    -0.4787     0.2763 C.ar    
   5 C5             2.4696     0.9108     0.2290 C.ar    
   6 C6             1.1714     1.3924     0.2941 C.ar    
   7 C7             4.1729    -0.6420     0.1855 C.2     
   8 N8             4.7343     0.5769     0.0925 N.am    
   9 C9             3.7990     1.5435     0.1112 C.2     
  10 C10            6.1750     0.8197    -0.0155 C.3     
  11 C11            6.5995     0.6915    -1.4558 C.ar    
  12 C12            6.4467     1.7648    -2.3236 C.ar    
  13 C13            6.8395     1.6432    -3.6505 C.ar    
  14 C14            7.3805     0.4561    -4.1029 C.ar    
  15 C15            7.5316    -0.6118    -3.2358 C.ar    
  16 C16            7.1462    -0.4918    -1.9126 C.ar    
  17 N17            5.8979     2.9659    -1.8627 N.am    
  18 C18            5.3492     3.8346    -2.7348 C.2     
  19 C19            4.8739     5.1562    -2.2640 C.ar    
  20 O20            5.2443     3.5337    -3.9076 O.2     
  21 O21            4.0121     2.7373     0.0427 O.2     
  22 O22            4.7705    -1.6992     0.1942 O.2     
  23 Br23           8.2725    -2.2361    -3.8594 Br      
  24 C24            4.3078     6.0496    -3.1703 C.ar    
  25 C25            3.8677     7.2827    -2.7147 C.ar    
  26 C26            4.0092     7.5789    -1.3682 C.ar    
  27 C27            4.5820     6.6417    -0.5229 C.ar    
  28 N28            4.9862     5.4771    -0.9806 N.ar    
  29 F29           -0.6966    -1.7134     0.5609 F       
  30 H30           -0.8983     0.8796     0.4515 H       
  31 H31            1.8168    -2.4207     0.4246 H       
  32 H32            0.9852     2.4556     0.2579 H       
  33 H33            6.4020     1.8241     0.3421 H       
  34 H34            6.7129     0.0888     0.5883 H       
  35 H35            6.7214     2.4762    -4.3277 H       
  36 H36            7.6858     0.3609    -5.1345 H       
  37 H37            7.2656    -1.3268    -1.2381 H       
  38 H38            5.9121     3.1736    -0.9153 H       
  39 H39            4.2134     5.7856    -4.2132 H       
  40 H40            3.4248     7.9963    -3.3936 H       
  41 H41            3.6768     8.5309    -0.9815 H       
  42 H42            4.6939     6.8693     0.5269 H       
@<TRIPOS>BOND
   1    1    2 ar
   2    1    6 ar
   3    1   30 1
   4    2    3 ar
   5    2   29 1
   6    3    4 ar
   7    3   31 1
   8    4    5 ar
   9    4    7 1
  10    5    6 ar
  11    5    9 1
  12    6   32 1
  13    7    8 am
  14    7   22 2
  15    8    9 am
  16    8   10 1
  17    9   21 2
  18   10   11 1
  19   10   33 1
  20   10   34 1
  21   11   12 ar
  22   11   16 ar
  23   12   13 ar
  24   12   17 1
  25   13   14 ar
  26   13   35 1
  27   14   15 ar
  28   14   36 1
  29   15   16 ar
  30   15   23 1
  31   16   37 1
  32   17   18 am
  33   17   38 1
  34   18   19 1
  35   18   20 2
  36   19   24 ar
  37   19   28 ar
  38   24   25 ar
  39   24   39 1
  40   25   26 ar
  41   25   40 1
  42   26   27 ar
  43   26   41 1
  44   27   28 ar
  45   27   42 1

#	End of record

