#	Name: ASD01148313
#	Creating user name:	WinNT
#	Creation time:	15. 06. 2019 19:02

#	Modifying user name:	WinNT
#	Modification time:	15. 06. 2019 19:02

#	Program:	/corina/corina34_cracker 3.40 0067  02.08.2006

@<TRIPOS>MOLECULE
ASD01148313
  52   55    0    0    0
SMALL
NO_CHARGES


@<TRIPOS>ATOM
   1 C1            -0.0167     1.3781     0.0096 C.ar    
   2 C2             0.0021    -0.0041     0.0020 C.ar    
   3 C3            -1.1855    -0.7115     0.0095 C.ar    
   4 C4            -2.3919    -0.0366     0.0251 C.ar    
   5 C5            -2.4106     1.3455     0.0336 C.ar    
   6 C6            -1.2230     2.0529     0.0305 C.ar    
   7 C7            -3.7258     2.0812     0.0501 C.3     
   8 O8            -4.7306     1.3264     0.7574 O.3     
   9 C9            -3.6320     3.3642     0.9100 C.3     
  10 C10           -4.1231     2.8897     2.2645 C.2     
  11 N11           -4.7174     1.7550     2.1047 N.2     
  12 C12           -3.9506     3.6028     3.5454 C.ar    
  13 C13           -4.4546     3.0507     4.7258 C.ar    
  14 C14           -3.2783     4.8272     3.5784 C.ar    
  15 C15           -3.1176     5.4921     4.7729 C.ar    
  16 C16           -3.6266     4.9428     5.9521 C.ar    
  17 C17           -4.2937     3.7159     5.9202 C.ar    
  18 C18           -3.4535     5.6566     7.2347 C.2     
  19 O19           -2.8682     6.7216     7.2634 O.2     
  20 N20           -3.9445     5.1266     8.3725 N.am    
  21 C21           -4.1857     2.4068    -1.3724 C.3     
  22 F22           -4.3278     1.2202    -2.0997 F       
  23 F23           -5.4144     3.0740    -1.3239 F       
  24 F24           -3.2356     3.2240    -1.9941 F       
  25 C25           -3.7729     5.8342     9.6438 C.3     
  26 C26           -4.4079     5.0355    10.7528 C.2     
  27 C27           -3.7175     4.1843    11.5175 C.2     
  28 S28           -4.8343     3.4693    12.6777 S.3     
  29 C29           -6.1185     4.3861    12.0192 C.2     
  30 N30           -5.6883     5.1234    11.0517 N.2     
  31 C31           -1.1651    -2.2183     0.0002 C.3     
  32 F32            0.1600    -2.6666    -0.0156 F       
  33 F33           -1.8069    -2.7004     1.1460 F       
  34 F34           -1.8295    -2.6867    -1.1384 F       
  35 C35            1.2780     2.1493     0.0014 C.3     
  36 F36            2.3536     1.2548    -0.0137 F       
  37 F37            1.3303     2.9607    -1.1371 F       
  38 F38            1.3521     2.9484     1.1473 F       
  39 H39            0.9446    -0.5313    -0.0101 H       
  40 H40           -3.3198    -0.5893     0.0302 H       
  41 H41           -1.2376     3.1328     0.0372 H       
  42 H42           -2.6014     3.7135     0.9727 H       
  43 H43           -4.2825     4.1439     0.5140 H       
  44 H44           -4.9707     2.1023     4.7011 H       
  45 H45           -2.8845     5.2518     2.6668 H       
  46 H46           -2.5976     6.4384     4.7985 H       
  47 H47           -4.6871     3.2913     6.8320 H       
  48 H48           -4.4115     4.2768     8.3496 H       
  49 H49           -2.7098     5.9597     9.8491 H       
  50 H50           -4.2491     6.8127     9.5821 H       
  51 H51           -2.6615     3.9721    11.4383 H       
  52 H52           -7.1409     4.3558    12.3660 H       
@<TRIPOS>BOND
   1    1    2 ar
   2    1   35 1
   3    1    6 ar
   4    2    3 ar
   5    2   39 1
   6    3    4 ar
   7    3   31 1
   8    4    5 ar
   9    4   40 1
  10    5    6 ar
  11    5    7 1
  12    6   41 1
  13    7    8 1
  14    7    9 1
  15    7   21 1
  16    8   11 1
  17    9   10 1
  18    9   42 1
  19    9   43 1
  20   10   11 2
  21   10   12 1
  22   12   13 ar
  23   12   14 ar
  24   13   17 ar
  25   13   44 1
  26   14   15 ar
  27   14   45 1
  28   15   16 ar
  29   15   46 1
  30   16   17 ar
  31   16   18 1
  32   17   47 1
  33   18   19 2
  34   18   20 am
  35   20   25 1
  36   20   48 1
  37   21   22 1
  38   21   23 1
  39   21   24 1
  40   25   26 1
  41   25   49 1
  42   25   50 1
  43   26   27 2
  44   26   30 1
  45   27   28 1
  46   27   51 1
  47   28   29 1
  48   29   30 2
  49   29   52 1
  50   31   32 1
  51   31   33 1
  52   31   34 1
  53   35   36 1
  54   35   37 1
  55   35   38 1

#	End of record

