#	Name: ASD02562035
#	Creating user name:	WinNT
#	Creation time:	15. 06. 2019 20:25

#	Modifying user name:	WinNT
#	Modification time:	15. 06. 2019 20:25

#	Program:	/corina/corina34_cracker 3.40 0067  02.08.2006

@<TRIPOS>MOLECULE
ASD02562035
  41   42    0    0    0
SMALL
NO_CHARGES


@<TRIPOS>ATOM
   1 C1             0.1412     1.3851     1.1358 C.2     
   2 C2             0.1610    -0.0210     1.1145 C.2     
   3 C3             1.2882    -0.6818     0.7825 C.2     
   4 N4             2.4280     0.0041     0.4617 N.pl3   
   5 C5             2.4384     1.3800     0.4735 C.2     
   6 C6             1.2651     2.0814     0.8193 C.2     
   7 C7             3.6821    -0.4025     0.0955 C.2     
   8 C8             4.4216     0.7172    -0.1058 C.2     
   9 N9             3.6503     1.7850     0.1282 N.2     
  10 N10            4.1201    -1.7252    -0.0446 N.3     
  11 C11            5.8694     0.7522    -0.5226 C.3     
  12 C12            5.9994     1.4977    -1.8524 C.3     
  13 C13            6.6912     1.4724     0.5483 C.3     
  14 C14            2.9997    -2.6669     0.0813 C.3     
  15 C15            3.3441    -3.9692    -0.6442 C.3     
  16 C16            3.4779    -3.6975    -2.1439 C.3     
  17 C17            3.8222    -4.9998    -2.8694 C.3     
  18 C18            2.7435    -2.9598     1.5610 C.3     
  19 H19           -0.7653     1.9101     1.3985 H       
  20 H20           -0.7317    -0.5745     1.3659 H       
  21 H21            1.2917    -1.7617     0.7698 H       
  22 H22            1.2593     3.1613     0.8322 H       
  23 H23            4.6047    -1.8548    -0.9201 H       
  24 H24            6.2385    -0.2667    -0.6397 H       
  25 H25            5.6303     2.5166    -1.7353 H       
  26 H26            7.0465     1.5230    -2.1539 H       
  27 H27            5.4139     0.9846    -2.6153 H       
  28 H28            7.7383     1.4977     0.2468 H       
  29 H29            6.3221     2.4913     0.6654 H       
  30 H30            6.5986     0.9413     1.4956 H       
  31 H31            2.1056    -2.2292    -0.3626 H       
  32 H32            4.2862    -4.3607    -0.2604 H       
  33 H33            2.5520    -4.6990    -0.4764 H       
  34 H34            2.5358    -3.3060    -2.5277 H       
  35 H35            4.2699    -2.9677    -2.3117 H       
  36 H36            3.9175    -4.8062    -3.9379 H       
  37 H37            4.7643    -5.3913    -2.4857 H       
  38 H38            3.0302    -5.7296    -2.7016 H       
  39 H39            2.4982    -2.0320     2.0778 H       
  40 H40            1.9122    -3.6586     1.6544 H       
  41 H41            3.6377    -3.3975     2.0048 H       
@<TRIPOS>BOND
   1    1    2 1
   2    1    6 2
   3    1   19 1
   4    2    3 2
   5    2   20 1
   6    3    4 1
   7    3   21 1
   8    4    5 1
   9    4    7 1
  10    5    6 1
  11    5    9 2
  12    6   22 1
  13    7    8 2
  14    7   10 1
  15    8    9 1
  16    8   11 1
  17   10   14 1
  18   10   23 1
  19   11   12 1
  20   11   13 1
  21   11   24 1
  22   12   25 1
  23   12   26 1
  24   12   27 1
  25   13   28 1
  26   13   29 1
  27   13   30 1
  28   14   15 1
  29   14   18 1
  30   14   31 1
  31   15   16 1
  32   15   32 1
  33   15   33 1
  34   16   17 1
  35   16   34 1
  36   16   35 1
  37   17   36 1
  38   17   37 1
  39   17   38 1
  40   18   39 1
  41   18   40 1
  42   18   41 1

#	End of record

