#	Name: ASD01914118
#	Creating user name:	WinNT
#	Creation time:	15. 06. 2019 20:02

#	Modifying user name:	WinNT
#	Modification time:	15. 06. 2019 20:02

#	Program:	/corina/corina34_cracker 3.40 0067  02.08.2006

@<TRIPOS>MOLECULE
ASD01914118
  31   33    0    0    0
SMALL
NO_CHARGES


@<TRIPOS>ATOM
   1 S1            -0.0211     1.7022     0.0114 S.3     
   2 C2             0.0021    -0.0041     0.0020 C.2     
   3 N3             1.1982    -0.4572    -0.0118 N.2     
   4 C4             2.2082     0.4336    -0.0167 C.ar    
   5 C5             1.7392     1.7517    -0.0051 C.ar    
   6 C6             2.6356     2.8181    -0.0080 C.ar    
   7 C7             3.9915     2.5809    -0.0226 C.ar    
   8 C8             4.4697     1.2784    -0.0342 C.ar    
   9 C9             3.6014     0.2146    -0.0316 C.ar    
  10 C10           -1.2321    -0.8688     0.0092 C.3     
  11 C11           -1.6360    -1.1692     1.4540 C.3     
  12 C12           -2.8416    -2.0138     1.4610 C.1     
  13 C13           -3.8031    -2.6874     1.4665 C.1     
  14 C14           -4.9758    -3.5091     1.4733 C.ar    
  15 C15           -5.5313    -3.9129     2.6880 C.ar    
  16 C16           -6.6644    -4.7066     2.6778 C.ar    
  17 C17           -7.2070    -5.0719     1.4534 C.ar    
  18 C18           -6.6053    -4.6363     0.2872 C.ar    
  19 N19           -5.5296    -3.8765     0.3236 N.ar    
  20 Cl20           4.2212    -1.4070    -0.0462 Cl      
  21 H21            2.2660     3.8329     0.0010 H       
  22 H22            4.6840     3.4097    -0.0255 H       
  23 H23            5.5347     1.0996    -0.0461 H       
  24 H24           -2.0452    -0.3456    -0.4941 H       
  25 H25           -1.0240    -1.8034    -0.5117 H       
  26 H26           -0.8230    -1.6923     1.9573 H       
  27 H27           -1.8442    -0.2346     1.9749 H       
  28 H28           -5.0829    -3.6104     3.6228 H       
  29 H29           -7.1167    -5.0350     3.6020 H       
  30 H30           -8.0909    -5.6911     1.4121 H       
  31 H31           -7.0253    -4.9195    -0.6666 H       
@<TRIPOS>BOND
   1    1    2 1
   2    1    5 1
   3    2    3 2
   4    2   10 1
   5    3    4 1
   6    4    5 ar
   7    4    9 ar
   8    5    6 ar
   9    6    7 ar
  10    6   21 1
  11    7    8 ar
  12    7   22 1
  13    8    9 ar
  14    8   23 1
  15    9   20 1
  16   10   11 1
  17   10   24 1
  18   10   25 1
  19   11   12 1
  20   11   26 1
  21   11   27 1
  22   12   13 3
  23   13   14 1
  24   14   15 ar
  25   14   19 ar
  26   15   16 ar
  27   15   28 1
  28   16   17 ar
  29   16   29 1
  30   17   18 ar
  31   17   30 1
  32   18   19 ar
  33   18   31 1

#	End of record

