#	Name: ASD09116427
#	Creating user name:	WinNT
#	Creation time:	15. 06. 2019 21:21

#	Modifying user name:	WinNT
#	Modification time:	15. 06. 2019 21:21

#	Program:	/corina/corina34_cracker 3.40 0067  02.08.2006

@<TRIPOS>MOLECULE
ASD09116427
  69   75    0    0    0
SMALL
NO_CHARGES


@<TRIPOS>ATOM
   1 N1             0.4052     0.8250    -0.3992 N.2     
   2 N2             0.5341    -0.5616    -0.2185 N.pl3   
   3 C3             1.6077     1.3380    -0.2954 C.2     
   4 N4             2.4830     0.3535    -0.0601 N.2     
   5 C5             1.8505    -0.7993    -0.0109 C.2     
   6 N6             2.4281    -2.0346     0.2132 N.pl3   
   7 C7            -0.4922    -1.5076    -0.2466 C.ar    
   8 N8             1.9235     2.6918    -0.4119 N.pl3   
   9 C9             3.2279     3.1286    -0.1663 C.ar    
  10 C10            3.7352     4.2252    -0.8475 C.ar    
  11 C11            4.0206     2.4699     0.7656 C.ar    
  12 C12            5.3057     2.9095     1.0033 C.ar    
  13 C13            5.8123     4.0051     0.3189 C.ar    
  14 C14            5.0281     4.6622    -0.6060 C.ar    
  15 N15           -0.2233    -2.7677    -0.5539 N.ar    
  16 N16           -1.1326    -3.6750    -0.6037 N.ar    
  17 C17           -2.4018    -3.3999    -0.3496 C.ar    
  18 C18           -2.7766    -2.1007     0.0046 C.ar    
  19 C19           -1.8021    -1.1264     0.0550 C.ar    
  20 C20           -3.4594    -4.4313    -0.4590 C.ar    
  21 C21           -4.6124    -4.1403    -1.1898 C.ar    
  22 C22           -4.7267    -2.8144    -1.8907 C.3     
  23 C23           -5.0596    -1.6931    -0.9102 C.3     
  24 C24           -4.2071    -1.8065     0.3509 C.3     
  25 C25           -3.3193    -5.6710     0.1551 C.ar    
  26 C26           -4.3340    -6.6029     0.0533 C.ar    
  27 C27           -5.4838    -6.3030    -0.6543 C.ar    
  28 C28           -5.6236    -5.0733    -1.2741 C.ar    
  29 C29            7.2190     4.4533     0.6232 C.3     
  30 C30            7.7275     5.3697    -0.4899 C.3     
  31 N31            6.7216     6.4165    -0.7300 N.3     
  32 C32            5.5390     5.8484    -1.3813 C.3     
  33 C33            7.2850     7.5154    -1.5256 C.3     
  34 C34            6.2166     8.5974    -1.7609 C.3     
  35 C35            6.7546     9.8943    -1.1219 C.3     
  36 C36            8.2905     9.6959    -1.0952 C.3     
  37 C37            8.4350     8.1925    -0.7517 C.3     
  38 H38            3.3857    -2.1043     0.3517 H       
  39 H39            1.8760    -2.8319     0.2320 H       
  40 H40            1.2376     3.3299    -0.6634 H       
  41 H41            3.1198     4.7408    -1.5699 H       
  42 H42            3.6315     1.6171     1.3019 H       
  43 H43            5.9222     2.3978     1.7276 H       
  44 H44           -2.0438    -0.1051     0.3098 H       
  45 H45           -3.7807    -2.5885    -2.3828 H       
  46 H46           -5.5131    -2.8754    -2.6430 H       
  47 H47           -4.8693    -0.7315    -1.3867 H       
  48 H48           -6.1132    -1.7556    -0.6379 H       
  49 H49           -4.5971    -2.6098     0.9761 H       
  50 H50           -4.2566    -0.8678     0.9026 H       
  51 H51           -2.4216    -5.9041     0.7085 H       
  52 H52           -4.2289    -7.5678     0.5270 H       
  53 H53           -6.2774    -7.0323    -0.7233 H       
  54 H54           -6.5245    -4.8451    -1.8244 H       
  55 H55            7.2298     4.9935     1.5698 H       
  56 H56            7.8683     3.5810     0.6986 H       
  57 H57            8.6680     5.8286    -0.1852 H       
  58 H58            7.8778     4.7905    -1.4010 H       
  59 H59            5.8011     5.5306    -2.3904 H       
  60 H60            4.7589     6.6076    -1.4372 H       
  61 H61            7.6490     7.1362    -2.4805 H       
  62 H62            6.0627     8.7440    -2.8300 H       
  63 H63            5.2800     8.3072    -1.2848 H       
  64 H64            6.4920    10.7580    -1.7327 H       
  65 H65            6.3672    10.0100    -0.1096 H       
  66 H66            8.7249     9.9127    -2.0711 H       
  67 H67            8.7465    10.3144    -0.3222 H       
  68 H68            8.3190     8.0333     0.3203 H       
  69 H69            9.3988     7.8143    -1.0925 H       
@<TRIPOS>BOND
   1    1    2 1
   2    1    3 2
   3    2    7 1
   4    2    5 1
   5    3    4 1
   6    3    8 1
   7    4    5 2
   8    5    6 1
   9    6   38 1
  10    6   39 1
  11    7   15 ar
  12    7   19 ar
  13    8    9 1
  14    8   40 1
  15    9   10 ar
  16    9   11 ar
  17   10   14 ar
  18   10   41 1
  19   11   12 ar
  20   11   42 1
  21   12   13 ar
  22   12   43 1
  23   13   14 ar
  24   13   29 1
  25   14   32 1
  26   15   16 ar
  27   16   17 ar
  28   17   18 ar
  29   17   20 1
  30   18   19 ar
  31   18   24 1
  32   19   44 1
  33   20   21 ar
  34   20   25 ar
  35   21   22 1
  36   21   28 ar
  37   22   23 1
  38   22   45 1
  39   22   46 1
  40   23   24 1
  41   23   47 1
  42   23   48 1
  43   24   49 1
  44   24   50 1
  45   25   26 ar
  46   25   51 1
  47   26   27 ar
  48   26   52 1
  49   27   28 ar
  50   27   53 1
  51   28   54 1
  52   29   30 1
  53   29   55 1
  54   29   56 1
  55   30   31 1
  56   30   57 1
  57   30   58 1
  58   31   32 1
  59   31   33 1
  60   32   59 1
  61   32   60 1
  62   33   34 1
  63   33   37 1
  64   33   61 1
  65   34   35 1
  66   34   62 1
  67   34   63 1
  68   35   36 1
  69   35   64 1
  70   35   65 1
  71   36   37 1
  72   36   66 1
  73   36   67 1
  74   37   68 1
  75   37   69 1

#	End of record

