#	Name: ASD02440068
#	Creating user name:	WinNT
#	Creation time:	15. 06. 2019 20:21

#	Modifying user name:	WinNT
#	Modification time:	15. 06. 2019 20:21

#	Program:	/corina/corina34_cracker 3.40 0067  02.08.2006

@<TRIPOS>MOLECULE
ASD02440068
  66   70    0    0    0
SMALL
NO_CHARGES


@<TRIPOS>ATOM
   1 N1             0.0421     1.4835     0.6541 N.am    
   2 C2             0.0472     0.1257     0.8230 C.2     
   3 S3             1.7182    -0.4115     0.5793 S.3     
   4 C4             2.3502     1.2147     0.2582 C.2     
   5 C5             1.1804     2.0921     0.3661 C.2     
   6 N6            -0.9862    -0.6326     1.1102 N.2     
   7 C7            -1.2012     2.2474     0.7837 C.3     
   8 C8            -1.3761     2.6830     2.2158 C.ar    
   9 O9             1.2518     3.2960     0.2018 O.2     
  10 C10            3.6301     1.5678    -0.0238 C.2     
  11 C11            4.7046     0.5713     0.0714 C.ar    
  12 C12            5.9062     0.7652    -0.6210 C.ar    
  13 C13            6.9104    -0.1721    -0.5278 C.ar    
  14 C14            6.7331    -1.3091     0.2518 C.ar    
  15 C15            5.5425    -1.5068     0.9413 C.ar    
  16 C16            4.5336    -0.5735     0.8596 C.ar    
  17 C17           -2.2136     2.2586     4.4188 C.ar    
  18 C18           -2.0494     1.8659     3.1067 C.ar    
  19 C19           -0.8579     3.8955     2.6350 C.ar    
  20 C20           -1.0144     4.3003     3.9444 C.ar    
  21 C21           -1.6977     3.4833     4.8474 C.ar    
  22 C22           -1.8700     3.9107     6.2510 C.2     
  23 O23           -2.4617     3.1961     7.0351 O.2     
  24 O24           -1.3711     5.0928     6.6612 O.3     
  25 O25            7.7267    -2.2305     0.3398 O.3     
  26 C26            7.4789    -3.3756     1.1581 C.3     
  27 C27            8.6841    -4.2800     1.1346 C.ar    
  28 C28            9.6891    -4.1168     2.0696 C.ar    
  29 C29           10.7946    -4.9464     2.0480 C.ar    
  30 C30           10.8949    -5.9395     1.0917 C.ar    
  31 C31            9.8895    -6.1033     0.1572 C.ar    
  32 C32            8.7819    -5.2765     0.1815 C.ar    
  33 C33           -0.8252    -1.9857     1.2495 C.ar    
  34 C34           -1.4217    -2.6554     2.3198 C.ar    
  35 C35           -1.2572    -4.0180     2.4558 C.ar    
  36 C36           -0.4997    -4.7234     1.5312 C.ar    
  37 C37            0.0951    -4.0620     0.4658 C.ar    
  38 C38           -0.0687    -2.7004     0.3185 C.ar    
  39 O39           -0.3395    -6.0666     1.6697 O.3     
  40 C40            0.4522    -6.7308     0.6827 C.3     
  41 H41           -1.1568     3.1257     0.1397 H       
  42 H42           -2.0440     1.6225     0.4884 H       
  43 H43            3.8583     2.5815    -0.3182 H       
  44 H44            6.0449     1.6481    -1.2274 H       
  45 H45            7.8374    -0.0238    -1.0617 H       
  46 H46            5.4100    -2.3922     1.5453 H       
  47 H47            3.6090    -0.7279     1.3959 H       
  48 H48           -2.7399     1.6203     5.1130 H       
  49 H49           -2.4476     0.9188     2.7739 H       
  50 H50           -0.3293     4.5262     1.9356 H       
  51 H51           -0.6091     5.2467     4.2705 H       
  52 H52           -1.5088     5.3294     7.5886 H       
  53 H53            7.2848    -3.0555     2.1818 H       
  54 H54            6.6124    -3.9149     0.7755 H       
  55 H55            9.6107    -3.3409     2.8168 H       
  56 H56           11.5801    -4.8185     2.7781 H       
  57 H57           11.7590    -6.5872     1.0743 H       
  58 H58            9.9680    -6.8790    -0.5902 H       
  59 H59            7.9964    -5.4044    -0.5486 H       
  60 H60           -2.0107    -2.1072     3.0402 H       
  61 H61           -1.7183    -4.5368     3.2833 H       
  62 H62            0.6839    -4.6148    -0.2512 H       
  63 H63            0.3942    -2.1866    -0.5110 H       
  64 H64            1.4594    -6.3140     0.6842 H       
  65 H65            0.4993    -7.7956     0.9110 H       
  66 H66            0.0019    -6.5893    -0.2997 H       
@<TRIPOS>BOND
   1    1    2 1
   2    1    5 am
   3    1    7 1
   4    2    3 1
   5    2    6 2
   6    3    4 1
   7    4    5 1
   8    4   10 2
   9    5    9 2
  10    6   33 1
  11    7    8 1
  12    7   41 1
  13    7   42 1
  14    8   19 ar
  15    8   18 ar
  16   10   11 1
  17   10   43 1
  18   11   12 ar
  19   11   16 ar
  20   12   13 ar
  21   12   44 1
  22   13   14 ar
  23   13   45 1
  24   14   15 ar
  25   14   25 1
  26   15   16 ar
  27   15   46 1
  28   16   47 1
  29   17   18 ar
  30   17   21 ar
  31   17   48 1
  32   18   49 1
  33   19   20 ar
  34   19   50 1
  35   20   21 ar
  36   20   51 1
  37   21   22 1
  38   22   23 2
  39   22   24 1
  40   24   52 1
  41   25   26 1
  42   26   27 1
  43   26   53 1
  44   26   54 1
  45   27   28 ar
  46   27   32 ar
  47   28   29 ar
  48   28   55 1
  49   29   30 ar
  50   29   56 1
  51   30   31 ar
  52   30   57 1
  53   31   32 ar
  54   31   58 1
  55   32   59 1
  56   33   34 ar
  57   33   38 ar
  58   34   35 ar
  59   34   60 1
  60   35   36 ar
  61   35   61 1
  62   36   37 ar
  63   36   39 1
  64   37   38 ar
  65   37   62 1
  66   38   63 1
  67   39   40 1
  68   40   64 1
  69   40   65 1
  70   40   66 1

#	End of record

