#	Name: ASD01901243
#	Creating user name:	WinNT
#	Creation time:	15. 06. 2019 19:53

#	Modifying user name:	WinNT
#	Modification time:	15. 06. 2019 19:53

#	Program:	/corina/corina34_cracker 3.40 0067  02.08.2006

@<TRIPOS>MOLECULE
ASD01901243
  46   49    0    0    0
SMALL
NO_CHARGES


@<TRIPOS>ATOM
   1 C1            -0.0158     1.3123     0.0093 C.ar    
   2 N2             0.0021    -0.0041     0.0020 N.ar    
   3 C3             1.1316    -0.6859    -0.0124 C.ar    
   4 C4             2.3557    -0.0416    -0.0202 C.ar    
   5 C5             2.3936     1.3414    -0.0131 C.ar    
   6 C6             1.1781     2.0387     0.0018 C.ar    
   7 C7             1.1598     3.4705     0.0091 C.1     
   8 C8             1.1447     4.6444     0.0152 C.1     
   9 C9             1.1264     6.0763     0.0225 C.ar    
  10 C10           -0.1048     8.1401     0.0501 C.ar    
  11 C11           -0.0919     6.7614     0.0431 C.ar    
  12 C12            2.3270     6.7928     0.0149 C.ar    
  13 C13            2.3055     8.1701     0.0220 C.ar    
  14 C14            1.0923     8.8485     0.0367 C.ar    
  15 Cl15          -1.6167     8.9929     0.0757 Cl      
  16 N16            1.0753    10.2484     0.0439 N.am    
  17 C17            1.0506    10.9174    -1.1293 C.2     
  18 C18            1.0420    13.0257     0.1647 C.ar    
  19 N19            1.0617    12.2424     1.3038 N.am    
  20 C20            1.0782    10.9016     1.2164 C.2     
  21 C21            1.0325    12.3938    -1.0916 C.ar    
  22 C22            1.0719    12.8819     2.6218 C.3     
  23 O23            1.0961    10.2521     2.2439 O.2     
  24 O24            1.0438    10.3202    -2.1882 O.2     
  25 C25           -0.1647    12.4454     3.4100 C.3     
  26 C26            2.3335    12.4659     3.3808 C.3     
  27 N27            1.0272    14.3488     0.2331 N.ar    
  28 N28            1.0084    13.1186    -2.2014 N.ar    
  29 C29            0.9934    14.4349    -2.1188 C.ar    
  30 C30            1.0032    15.0613    -0.8791 C.ar    
  31 H31           -0.9608     1.8351     0.0166 H       
  32 H32            1.1000    -1.7654    -0.0179 H       
  33 H33            3.2725    -0.6123    -0.0312 H       
  34 H34            3.3354     1.8699    -0.0189 H       
  35 H35           -1.0214     6.2117     0.0532 H       
  36 H36            3.2703     6.2669     0.0039 H       
  37 H37            3.2328     8.7238     0.0165 H       
  38 H38            1.0615    13.9650     2.5002 H       
  39 H39           -0.1572    12.9212     4.3906 H       
  40 H40           -1.0635    12.7417     2.8693 H       
  41 H41           -0.1544    11.3622     3.5316 H       
  42 H42            3.2145    12.7769     2.8193 H       
  43 H43            2.3411    12.9417     4.3615 H       
  44 H44            2.3438    11.3828     3.5024 H       
  45 H45            0.9738    15.0292    -3.0204 H       
  46 H46            0.9907    16.1399    -0.8240 H       
@<TRIPOS>BOND
   1    1    2 ar
   2    1    6 ar
   3    1   31 1
   4    2    3 ar
   5    3    4 ar
   6    3   32 1
   7    4    5 ar
   8    4   33 1
   9    5    6 ar
  10    5   34 1
  11    6    7 1
  12    7    8 3
  13    8    9 1
  14    9   12 ar
  15    9   11 ar
  16   10   11 ar
  17   10   14 ar
  18   10   15 1
  19   11   35 1
  20   12   13 ar
  21   12   36 1
  22   13   14 ar
  23   13   37 1
  24   14   16 1
  25   16   17 am
  26   16   20 am
  27   17   21 1
  28   17   24 2
  29   18   19 1
  30   18   21 ar
  31   18   27 ar
  32   19   20 am
  33   19   22 1
  34   20   23 2
  35   21   28 ar
  36   22   25 1
  37   22   26 1
  38   22   38 1
  39   25   39 1
  40   25   40 1
  41   25   41 1
  42   26   42 1
  43   26   43 1
  44   26   44 1
  45   27   30 ar
  46   28   29 ar
  47   29   30 ar
  48   29   45 1
  49   30   46 1

#	End of record

