#	Name: ASD01870128
#	Creating user name:	WinNT
#	Creation time:	15. 06. 2019 19:38

#	Modifying user name:	WinNT
#	Modification time:	15. 06. 2019 19:38

#	Program:	/corina/corina34_cracker 3.40 0067  02.08.2006

@<TRIPOS>MOLECULE
ASD01870128
  48   50    0    0    0
SMALL
NO_CHARGES


@<TRIPOS>ATOM
   1 C1            -0.2835     1.4202     0.0786 C.ar    
   2 C2            -0.3065     0.0395     0.0861 C.ar    
   3 C3             0.8773    -0.6810     0.1205 C.ar    
   4 C4             2.0901    -0.0246     0.1471 C.ar    
   5 C5             2.1263     1.3717     0.1394 C.ar    
   6 C6             0.9271     2.0957     0.1051 C.ar    
   7 O7             0.9505     3.4528     0.0969 O.3     
   8 C8             1.1357     4.0523    -1.0905 C.2     
   9 C9             1.0648     5.5539    -1.1957 C.3     
  10 O10            1.3591     3.3876    -2.0745 O.2     
  11 Cl11           0.8331    -2.4164     0.1306 Cl      
  12 C12            3.4202     2.0805     0.1678 C.2     
  13 O13            3.4478     3.2961     0.1610 O.2     
  14 N14            4.5714     1.3805     0.2013 N.am    
  15 C15            5.7989     2.0501     0.1548 C.ar    
  16 C16            5.9360     3.2939     0.7560 C.ar    
  17 C17            6.8856     1.4690    -0.4885 C.ar    
  18 C18            8.0965     2.1333    -0.5319 C.ar    
  19 C19            8.2275     3.3744     0.0642 C.ar    
  20 C20            7.1496     3.9525     0.7088 C.ar    
  21 Cl21           6.7218    -0.0894    -1.2358 Cl      
  22 C22            1.3097     5.9757    -2.6459 C.3     
  23 C23            1.1561     7.4748    -2.7866 C.2     
  24 O24            2.3458     7.9629    -3.1884 O.3     
  25 C25            3.1047     6.8488    -3.7457 C.3     
  26 O26            2.6661     5.6823    -3.0258 O.3     
  27 C27            2.8002     6.6952    -5.2372 C.3     
  28 C28            4.6034     7.0700    -3.5311 C.3     
  29 O29            0.1528     8.1149    -2.5778 O.2     
  30 N30            9.5261     4.0832     0.0164 N.pl3   
  31 O31           10.4778     3.5733    -0.5475 O.2     
  32 O32            9.6430     5.1762     0.5408 O.2     
  33 H33           -1.2098     1.9747     0.0476 H       
  34 H34           -1.2520    -0.4819     0.0653 H       
  35 H35            3.0103    -0.5894     0.1742 H       
  36 H36            0.0786     5.8941    -0.8800 H       
  37 H37            1.8254     5.9993    -0.5544 H       
  38 H38            4.5489     0.4124     0.2575 H       
  39 H39            5.0947     3.7465     1.2598 H       
  40 H40            8.9414     1.6828    -1.0313 H       
  41 H41            7.2554     4.9220     1.1728 H       
  42 H42            0.6131     5.4626    -3.3089 H       
  43 H43            3.0989     7.6013    -5.7642 H       
  44 H44            3.3531     5.8443    -5.6352 H       
  45 H45            1.7315     6.5304    -5.3747 H       
  46 H46            4.8069     7.1698    -2.4650 H       
  47 H47            5.1568     6.2193    -3.9286 H       
  48 H48            4.9140     7.9786    -4.0469 H       
@<TRIPOS>BOND
   1    1    2 ar
   2    1    6 ar
   3    1   33 1
   4    2    3 ar
   5    2   34 1
   6    3    4 ar
   7    3   11 1
   8    4    5 ar
   9    4   35 1
  10    5    6 ar
  11    5   12 1
  12    6    7 1
  13    7    8 1
  14    8    9 1
  15    8   10 2
  16    9   22 1
  17    9   36 1
  18    9   37 1
  19   12   13 2
  20   12   14 am
  21   14   15 1
  22   14   38 1
  23   15   16 ar
  24   15   17 ar
  25   16   20 ar
  26   16   39 1
  27   17   18 ar
  28   17   21 1
  29   18   19 ar
  30   18   40 1
  31   19   20 ar
  32   19   30 1
  33   20   41 1
  34   22   23 1
  35   22   26 1
  36   22   42 1
  37   23   24 1
  38   23   29 2
  39   24   25 1
  40   25   26 1
  41   25   27 1
  42   25   28 1
  43   27   43 1
  44   27   44 1
  45   27   45 1
  46   28   46 1
  47   28   47 1
  48   28   48 1
  49   30   31 2
  50   30   32 2

#	End of record

