#	Name: ASD07300233
#	Creating user name:	WinNT
#	Creation time:	15. 06. 2019 21:09

#	Modifying user name:	WinNT
#	Modification time:	15. 06. 2019 21:09

#	Program:	/corina/corina34_cracker 3.40 0067  02.08.2006

@<TRIPOS>MOLECULE
ASD07300233
  50   53    0    0    0
SMALL
NO_CHARGES


@<TRIPOS>ATOM
   1 C1            -0.8588     0.9901    -0.1287 C.ar    
   2 C2            -1.0217    -0.3807    -0.3517 C.ar    
   3 C3             0.0637    -1.2292    -0.1921 C.ar    
   4 C4             1.2787    -0.6763     0.1860 C.ar    
   5 C5             1.3679     0.6878     0.3896 C.ar    
   6 N6             0.3194     1.4722     0.2308 N.ar    
   7 C7            -2.9727     0.6168    -0.6993 C.2     
   8 N8            -2.0973     1.5796    -0.3552 N.am    
   9 N9            -2.3516    -0.5780    -0.7114 N.am    
  10 O10           -4.1464     0.7990    -0.9634 O.2     
  11 C11           -2.9710    -1.8648    -1.0381 C.3     
  12 C12           -4.1180    -2.1406    -0.0639 C.3     
  13 C13           -3.5154    -1.8205    -2.4673 C.3     
  14 C14           -2.3862     2.9477    -0.2432 C.ar    
  15 C15           -3.6705     3.4093    -0.4981 C.ar    
  16 C16           -3.9545     4.7560    -0.3872 C.ar    
  17 C17           -2.9567     5.6478    -0.0212 C.ar    
  18 C18           -1.6731     5.1870     0.2337 C.ar    
  19 C19           -1.3894     3.8398     0.1282 C.ar    
  20 O20           -3.2368     6.9738     0.0874 O.3     
  21 C21           -3.9132     7.3925     1.1815 C.2     
  22 N22           -4.2407     6.6360     2.1967 N.2     
  23 C23           -4.9115     7.3750     3.1189 C.ar    
  24 C24           -4.9944     8.6846     2.6168 C.ar    
  25 N25           -4.3497     8.6678     1.3918 N.pl3   
  26 C26           -5.4764     7.0780     4.3613 C.ar    
  27 C27           -6.1073     8.0687     5.0801 C.ar    
  28 C28           -6.1868     9.3596     4.5797 C.ar    
  29 C29           -5.6339     9.6694     3.3541 C.ar    
  30 H30           -0.0344    -2.2919    -0.3575 H       
  31 H31            2.1460    -1.3057     0.3203 H       
  32 H32            2.3132     1.1193     0.6840 H       
  33 H33           -2.2270    -2.6572    -0.9571 H       
  34 H34           -4.8621    -1.3482    -0.1449 H       
  35 H35           -4.5790    -3.0980    -0.3070 H       
  36 H36           -3.7303    -2.1722     0.9543 H       
  37 H37           -3.9763    -2.7778    -2.7104 H       
  38 H38           -4.2594    -1.0280    -2.5484 H       
  39 H39           -2.6982    -1.6240    -3.1614 H       
  40 H40           -4.4472     2.7152    -0.7834 H       
  41 H41           -4.9535     5.1152    -0.5859 H       
  42 H42           -0.8967     5.8815     0.5186 H       
  43 H43           -0.3912     3.4806     0.3306 H       
  44 H44           -4.2322     9.4220     0.7933 H       
  45 H45           -5.4188     6.0746     4.7568 H       
  46 H46           -6.5439     7.8385     6.0408 H       
  47 H47           -6.6850    10.1274     5.1529 H       
  48 H48           -5.6987    10.6768     2.9702 H       
  49 Cl49           7.3132    15.6768    11.0408 Cl      
  50 H50            7.3132    17.0468    11.0408 H       
@<TRIPOS>BOND
   1    1    2 ar
   2    1    6 ar
   3    1    8 1
   4    2    3 ar
   5    2    9 1
   6    3    4 ar
   7    3   30 1
   8    4    5 ar
   9    4   31 1
  10    5    6 ar
  11    5   32 1
  12    7    8 am
  13    7    9 am
  14    7   10 2
  15    8   14 1
  16    9   11 1
  17   11   12 1
  18   11   13 1
  19   11   33 1
  20   12   34 1
  21   12   35 1
  22   12   36 1
  23   13   37 1
  24   13   38 1
  25   13   39 1
  26   14   15 ar
  27   14   19 ar
  28   15   16 ar
  29   15   40 1
  30   16   17 ar
  31   16   41 1
  32   17   18 ar
  33   17   20 1
  34   18   19 ar
  35   18   42 1
  36   19   43 1
  37   20   21 1
  38   21   22 2
  39   21   25 1
  40   22   23 1
  41   23   24 ar
  42   23   26 ar
  43   24   25 1
  44   24   29 ar
  45   25   44 1
  46   26   27 ar
  47   26   45 1
  48   27   28 ar
  49   27   46 1
  50   28   29 ar
  51   28   47 1
  52   29   48 1
  53   49   50 1

#	End of record

