#	Name: ASD01812507
#	Creating user name:	WinNT
#	Creation time:	15. 06. 2019 19:28

#	Modifying user name:	WinNT
#	Modification time:	15. 06. 2019 19:28

#	Program:	/corina/corina34_cracker 3.40 0067  02.08.2006

@<TRIPOS>MOLECULE
ASD01812507
  52   57    0    0    0
SMALL
NO_CHARGES


@<TRIPOS>ATOM
   1 C1            -0.0179     1.4559     0.0047 C.ar    
   2 C2             0.0019    -0.0040    -0.0061 C.ar    
   3 C3            -1.2298    -0.7013     0.0445 C.ar    
   4 C4            -2.4423     0.0174     0.1042 C.ar    
   5 C5            -2.4542     1.3715     0.1138 C.ar    
   6 C6            -1.2617     2.1108     0.0704 C.ar    
   7 C7            -1.2213    -2.1045     0.0347 C.ar    
   8 C8            -0.0351    -2.7734    -0.0230 C.ar    
   9 C9             1.1729    -2.0853    -0.0726 C.ar    
  10 C10            1.2011    -0.7212    -0.0642 C.ar    
  11 N11            1.1101     2.1840    -0.0406 N.2     
  12 C12            1.0857     3.4851    -0.0303 C.2     
  13 N13           -0.0649     4.2045     0.0262 N.am    
  14 C14           -1.2636     3.5788     0.0803 C.2     
  15 C15           -3.7471    -0.7349     0.1576 C.3     
  16 C16           -4.0566    -1.1029     1.5858 C.ar    
  17 C17           -3.6081    -2.2986     2.1113 C.ar    
  18 C18           -4.7906    -0.2412     2.3889 C.ar    
  19 C19           -5.0525    -0.6181     3.6948 C.ar    
  20 C20           -4.5748    -1.8384     4.1546 C.ar    
  21 N21           -3.8740    -2.6305     3.3602 N.ar    
  22 O22           -2.3041     4.2093     0.1354 O.2     
  23 O23           -4.8244    -2.2191     5.4327 O.3     
  24 C24           -4.3062    -3.4853     5.8455 C.3     
  25 C25           -0.0102     5.6034     0.0337 C.2     
  26 C26            1.2005     6.4200     0.1295 C.ar    
  27 C27            0.7753     7.7619     0.0996 C.ar    
  28 N28           -0.5912     7.7427    -0.0064 N.pl3   
  29 N29           -1.0305     6.4155    -0.0493 N.2     
  30 C30            2.5633     6.1278     0.2350 C.ar    
  31 C31            3.4690     7.1471     0.3080 C.ar    
  32 C32            3.0483     8.4705     0.2784 C.ar    
  33 C33            1.7213     8.7808     0.1798 C.ar    
  34 H34           -3.3991     1.8926     0.1593 H       
  35 H35           -2.1512    -2.6524     0.0730 H       
  36 H36           -0.0330    -3.8534    -0.0300 H       
  37 H37            2.0999    -2.6377    -0.1175 H       
  38 H38            2.1450    -0.1977    -0.1027 H       
  39 H39            2.0244     4.0177    -0.0681 H       
  40 H40           -4.5454    -0.1062    -0.2368 H       
  41 H41           -3.6686    -1.6415    -0.4424 H       
  42 H42           -3.0327    -2.9707     1.4919 H       
  43 H43           -5.1489     0.7020     2.0038 H       
  44 H44           -5.6204     0.0283     4.3475 H       
  45 H45           -3.2207    -3.4831     5.7472 H       
  46 H46           -4.5765    -3.6669     6.8857 H       
  47 H47           -4.7262    -4.2717     5.2183 H       
  48 H48           -1.1627     8.5253    -0.0485 H       
  49 H49            2.8981     5.1013     0.2589 H       
  50 H50            4.5221     6.9221     0.3898 H       
  51 H51            3.7787     9.2639     0.3373 H       
  52 H52            1.4068     9.8139     0.1623 H       
@<TRIPOS>BOND
   1    1    2 ar
   2    1   11 1
   3    1    6 ar
   4    2   10 ar
   5    2    3 ar
   6    3    4 ar
   7    3    7 ar
   8    4    5 ar
   9    4   15 1
  10    5    6 ar
  11    5   34 1
  12    6   14 1
  13    7    8 ar
  14    7   35 1
  15    8    9 ar
  16    8   36 1
  17    9   10 ar
  18    9   37 1
  19   10   38 1
  20   11   12 2
  21   12   13 1
  22   12   39 1
  23   13   14 am
  24   13   25 1
  25   14   22 2
  26   15   16 1
  27   15   40 1
  28   15   41 1
  29   16   18 ar
  30   16   17 ar
  31   17   21 ar
  32   17   42 1
  33   18   19 ar
  34   18   43 1
  35   19   20 ar
  36   19   44 1
  37   20   21 ar
  38   20   23 1
  39   23   24 1
  40   24   45 1
  41   24   46 1
  42   24   47 1
  43   25   26 1
  44   25   29 2
  45   26   30 ar
  46   26   27 ar
  47   27   28 1
  48   27   33 ar
  49   28   29 1
  50   28   48 1
  51   30   31 ar
  52   30   49 1
  53   31   32 ar
  54   31   50 1
  55   32   33 ar
  56   32   51 1
  57   33   52 1

#	End of record

