#	Name: ASD01880522
#	Creating user name:	WinNT
#	Creation time:	15. 06. 2019 19:40

#	Modifying user name:	WinNT
#	Modification time:	15. 06. 2019 19:40

#	Program:	/corina/corina34_cracker 3.40 0067  02.08.2006

@<TRIPOS>MOLECULE
ASD01880522
  51   54    0    0    0
SMALL
NO_CHARGES


@<TRIPOS>ATOM
   1 N1             0.0007     1.3142    -0.2012 N.ar    
   2 C2             0.0232    -0.0042    -0.2230 C.ar    
   3 N3             1.1377    -0.6836    -0.0321 N.ar    
   4 C4             2.2866    -0.0615     0.1909 C.ar    
   5 C5             2.3107     1.3190     0.2225 C.ar    
   6 C6             1.1140     2.0082     0.0166 C.ar    
   7 C7             3.5969     2.0632     0.4735 C.3     
   8 O8             4.6354     1.1302     0.7781 O.3     
   9 C9             5.8671     1.6404     1.0320 C.ar    
  10 C10            6.9238     0.7874     1.3355 C.ar    
  11 C11            8.1693     1.3048     1.5916 C.ar    
  12 C12            8.3842     2.6864     1.5495 C.ar    
  13 C13            7.3195     3.5386     1.2437 C.ar    
  14 C14            6.0732     3.0139     0.9828 C.ar    
  15 C15            9.4956     0.6781     1.9430 C.3     
  16 N16           10.4459     1.7864     2.0908 N.am    
  17 C17            9.8005     2.9431     1.8629 C.2     
  18 O18           10.3129     4.0447     1.9086 O.2     
  19 Cl19          -1.4543    -0.8692    -0.5104 Cl      
  20 N20            1.0869     3.3932     0.0385 N.3     
  21 C21           -0.1586     3.8862     0.6443 C.3     
  22 C22           -0.1208     5.4156     0.7027 C.3     
  23 O23            0.0822     5.9331    -0.6150 O.3     
  24 C24            1.2865     5.4738    -1.2347 C.3     
  25 C25            1.2629     3.9450    -1.3127 C.3     
  26 C26           14.1678     1.3753     1.5035 C.3     
  27 C27           12.6861     1.5137     1.1480 C.3     
  28 C28           11.8647     1.6538     2.4312 C.3     
  29 H29            3.1932    -0.6275     0.3463 H       
  30 H30            3.8680     2.6308    -0.4168 H       
  31 H31            3.4639     2.7457     1.3129 H       
  32 H32            6.7642    -0.2802     1.3699 H       
  33 H33            7.4747     4.6068     1.2090 H       
  34 H34            5.2510     3.6730     0.7462 H       
  35 H35            9.4134     0.1276     2.8801 H       
  36 H36            9.8187     0.0116     1.1433 H       
  37 H37           -1.0083     3.5659     0.0415 H       
  38 H38           -0.2559     3.4858     1.6534 H       
  39 H39           -1.0655     5.7882     1.0986 H       
  40 H40            0.6967     5.7351     1.3491 H       
  41 H41            1.3595     5.8884    -2.2401 H       
  42 H42            2.1449     5.7949    -0.6447 H       
  43 H43            2.2033     3.5874    -1.7322 H       
  44 H44            0.4359     3.6256    -1.9469 H       
  45 H45           14.4947     2.2603     2.0493 H       
  46 H46           14.3113     0.4915     2.1250 H       
  47 H47           14.7530     1.2755     0.5893 H       
  48 H48           12.5426     2.3976     0.5264 H       
  49 H49           12.3592     0.6287     0.6021 H       
  50 H50           12.1916     2.5389     2.9770 H       
  51 H51           12.0082     0.7700     3.0527 H       
@<TRIPOS>BOND
   1    1    2 ar
   2    1    6 ar
   3    2    3 ar
   4    2   19 1
   5    3    4 ar
   6    4    5 ar
   7    4   29 1
   8    5    6 ar
   9    5    7 1
  10    6   20 1
  11    7    8 1
  12    7   30 1
  13    7   31 1
  14    8    9 1
  15    9   10 ar
  16    9   14 ar
  17   10   11 ar
  18   10   32 1
  19   11   12 ar
  20   11   15 1
  21   12   13 ar
  22   12   17 1
  23   13   14 ar
  24   13   33 1
  25   14   34 1
  26   15   16 1
  27   15   35 1
  28   15   36 1
  29   16   17 am
  30   16   28 1
  31   17   18 2
  32   20   21 1
  33   20   25 1
  34   21   22 1
  35   21   37 1
  36   21   38 1
  37   22   23 1
  38   22   39 1
  39   22   40 1
  40   23   24 1
  41   24   25 1
  42   24   41 1
  43   24   42 1
  44   25   43 1
  45   25   44 1
  46   26   27 1
  47   26   45 1
  48   26   46 1
  49   26   47 1
  50   27   28 1
  51   27   48 1
  52   27   49 1
  53   28   50 1
  54   28   51 1

#	End of record

