#	Name: ASD01001103
#	Creating user name:	WinNT
#	Creation time:	15. 06. 2019 18:55

#	Modifying user name:	WinNT
#	Modification time:	15. 06. 2019 18:55

#	Program:	/corina/corina34_cracker 3.40 0067  02.08.2006

@<TRIPOS>MOLECULE
ASD01001103
  59   62    0    0    0
SMALL
NO_CHARGES


@<TRIPOS>ATOM
   1 C1             0.3432     0.8457    -1.3058 C.2     
   2 N2             0.0170     0.7478     0.0348 N.pl3   
   3 N3            -1.1341     0.0384     0.3998 N.2     
   4 C4            -1.8879    -0.5199    -0.4865 C.2     
   5 N5            -1.6198    -0.4596    -1.8313 N.am    
   6 C6            -0.5351     0.2066    -2.2853 C.2     
   7 C7             1.5028     1.5823    -1.4042 C.2     
   8 C8             1.8740     1.9290    -0.1028 C.2     
   9 C9             0.9510     1.4070     0.7481 C.2     
  10 O10           -0.2904     0.2651    -3.4769 O.2     
  11 C11           -2.5197    -1.1171    -2.7821 C.3     
  12 C12           -3.6623    -0.1924    -3.1142 C.ar    
  13 C13           -3.5133     0.7636    -4.1015 C.ar    
  14 C14           -4.5614     1.6118    -4.4061 C.ar    
  15 C15           -5.7587     1.5039    -3.7236 C.ar    
  16 C16           -5.9080     0.5473    -2.7369 C.ar    
  17 C17           -4.8614    -0.3038    -2.4353 C.ar    
  18 C18           -3.1119    -1.2688    -0.0263 C.3     
  19 N19           -2.7056    -2.4038     0.8063 N.am    
  20 C20           -4.0061    -0.3326     0.7890 C.3     
  21 C21           -2.0666    -2.1690     2.1035 C.3     
  22 C22           -2.9198    -3.6639     0.3788 C.2     
  23 C23           -3.4713    -3.9025    -0.9713 C.ar    
  24 O24           -2.6593    -4.6042     1.1038 O.2     
  25 C25           -3.1297    -2.1725     3.2038 C.3     
  26 Cl26           0.9719     1.5653     2.4767 Cl      
  27 N27           -2.4889    -1.9371     4.5045 N.3     
  28 C28           -4.5956    -3.1966    -1.4039 C.ar    
  29 C29           -5.1057    -3.4236    -2.6648 C.ar    
  30 C30           -4.5050    -4.3496    -3.5015 C.ar    
  31 C31           -3.3894    -5.0529    -3.0780 C.ar    
  32 C32           -2.8668    -4.8304    -1.8214 C.ar    
  33 Cl33          -5.1533    -4.6304    -5.0873 Cl      
  34 C34           -5.3183    -1.0444     1.1242 C.3     
  35 H35            2.0252     1.8418    -2.3131 H       
  36 H36            2.7410     2.5088     0.1777 H       
  37 H37           -1.9719    -1.3594    -3.6928 H       
  38 H38           -2.9105    -2.0330    -2.3387 H       
  39 H39           -2.5779     0.8479    -4.6347 H       
  40 H40           -4.4448     2.3592    -5.1770 H       
  41 H41           -6.5773     2.1671    -3.9611 H       
  42 H42           -6.8433     0.4632    -2.2035 H       
  43 H43           -4.9780    -1.0512    -1.6645 H       
  44 H44           -3.6624    -1.6332    -0.8936 H       
  45 H45           -3.4967    -0.0560     1.7121 H       
  46 H46           -4.2178     0.5650     0.2079 H       
  47 H47           -1.3394    -2.9572     2.2983 H       
  48 H48           -1.5609    -1.2034     2.0899 H       
  49 H49           -3.8568    -1.3842     3.0090 H       
  50 H50           -3.6353    -3.1380     3.2174 H       
  51 H51           -3.1706    -1.9348     5.2484 H       
  52 H52           -1.7650    -2.6179     4.6796 H       
  53 H53           -5.0650    -2.4746    -0.7522 H       
  54 H54           -5.9755    -2.8785    -3.0004 H       
  55 H55           -2.9255    -5.7740    -3.7347 H       
  56 H56           -1.9967    -5.3791    -1.4923 H       
  57 H57           -5.9362    -0.3944     1.7438 H       
  58 H58           -5.8498    -1.2799     0.2022 H       
  59 H59           -5.1038    -1.9658     1.6655 H       
@<TRIPOS>BOND
   1    1    2 1
   2    1    7 2
   3    1    6 1
   4    2    3 1
   5    2    9 1
   6    3    4 2
   7    4    5 1
   8    4   18 1
   9    5    6 am
  10    5   11 1
  11    6   10 2
  12    7    8 1
  13    7   35 1
  14    8    9 2
  15    8   36 1
  16    9   26 1
  17   11   12 1
  18   11   37 1
  19   11   38 1
  20   12   13 ar
  21   12   17 ar
  22   13   14 ar
  23   13   39 1
  24   14   15 ar
  25   14   40 1
  26   15   16 ar
  27   15   41 1
  28   16   17 ar
  29   16   42 1
  30   17   43 1
  31   18   19 1
  32   18   20 1
  33   18   44 1
  34   19   21 1
  35   19   22 am
  36   20   34 1
  37   20   45 1
  38   20   46 1
  39   21   25 1
  40   21   47 1
  41   21   48 1
  42   22   23 1
  43   22   24 2
  44   23   28 ar
  45   23   32 ar
  46   25   27 1
  47   25   49 1
  48   25   50 1
  49   27   51 1
  50   27   52 1
  51   28   29 ar
  52   28   53 1
  53   29   30 ar
  54   29   54 1
  55   30   31 ar
  56   30   33 1
  57   31   32 ar
  58   31   55 1
  59   32   56 1
  60   34   57 1
  61   34   58 1
  62   34   59 1

#	End of record

