#	Name: ASD01140611
#	Creating user name:	WinNT
#	Creation time:	15. 06. 2019 19:01

#	Modifying user name:	WinNT
#	Modification time:	15. 06. 2019 19:01

#	Program:	/corina/corina34_cracker 3.40 0067  02.08.2006

@<TRIPOS>MOLECULE
ASD01140611
  37   39    0    0    0
SMALL
NO_CHARGES


@<TRIPOS>ATOM
   1 C1             0.1032     1.4766     0.6975 C.ar    
   2 C2             0.8410     0.9281     1.7607 C.ar    
   3 C3             1.9807     0.2321     1.5024 C.ar    
   4 C4             2.4318     0.0529     0.1913 C.ar    
   5 C5             1.7393     0.5724    -0.8653 C.ar    
   6 C6             0.5586     1.2961    -0.6329 C.ar    
   7 C7            -0.1811     1.8451    -1.6949 C.ar    
   8 C8            -1.3211     2.5404    -1.4328 C.ar    
   9 C9            -1.7685     2.7182    -0.1248 C.ar    
  10 C10           -1.0817     2.1963     0.9280 C.ar    
  11 O11            3.5747    -0.6471    -0.0349 O.3     
  12 C12            3.5002    -1.9840     0.0634 C.2     
  13 C13            4.7486    -2.8193    -0.0587 C.3     
  14 O14            2.4322    -2.5175     0.2496 O.2     
  15 C15            4.0646    -5.0746    -0.9183 C.2     
  16 N16            4.4040    -4.2361     0.0831 N.pl3   
  17 C17            3.8162    -6.2882    -0.3737 C.2     
  18 C18            4.0163    -6.1894     1.0071 C.2     
  19 N19            4.3687    -4.9597     1.2820 N.2     
  20 C20            3.8500    -7.3053     2.0061 C.3     
  21 C21            3.9724    -4.7212    -2.3804 C.3     
  22 H22            0.5045     1.0590     2.7785 H       
  23 H23            2.5453    -0.1877     2.3218 H       
  24 H24            2.0979     0.4277    -1.8737 H       
  25 H25            0.1539     1.7159    -2.7135 H       
  26 H26           -1.8875     2.9611    -2.2505 H       
  27 H27           -2.6761     3.2749     0.0558 H       
  28 H28           -1.4432     2.3381     1.9357 H       
  29 H29            5.2037    -2.6519    -1.0349 H       
  30 H30            5.4528    -2.5365     0.7238 H       
  31 H31            3.5159    -7.1760    -0.9103 H       
  32 H32            4.7967    -7.8329     2.1225 H       
  33 H33            3.5448    -6.8904     2.9668 H       
  34 H34            3.0882    -7.9997     1.6518 H       
  35 H35            4.9386    -4.8887    -2.8563 H       
  36 H36            3.2186    -5.3466    -2.8585 H       
  37 H37            3.6934    -3.6726    -2.4838 H       
@<TRIPOS>BOND
   1    1    2 ar
   2    1    6 ar
   3    1   10 ar
   4    2    3 ar
   5    2   22 1
   6    3    4 ar
   7    3   23 1
   8    4    5 ar
   9    4   11 1
  10    5    6 ar
  11    5   24 1
  12    6    7 ar
  13    7    8 ar
  14    7   25 1
  15    8    9 ar
  16    8   26 1
  17    9   10 ar
  18    9   27 1
  19   10   28 1
  20   11   12 1
  21   12   13 1
  22   12   14 2
  23   13   16 1
  24   13   29 1
  25   13   30 1
  26   15   21 1
  27   15   16 1
  28   15   17 2
  29   16   19 1
  30   17   18 1
  31   17   31 1
  32   18   19 2
  33   18   20 1
  34   20   32 1
  35   20   33 1
  36   20   34 1
  37   21   35 1
  38   21   36 1
  39   21   37 1

#	End of record

