#	Name: ASD01180160
#	Creating user name:	WinNT
#	Creation time:	15. 06. 2019 19:06

#	Modifying user name:	WinNT
#	Modification time:	15. 06. 2019 19:06

#	Program:	/corina/corina34_cracker 3.40 0067  02.08.2006

@<TRIPOS>MOLECULE
ASD01180160
  64   68    0    0    0
SMALL
NO_CHARGES


@<TRIPOS>ATOM
   1 C1             0.3655    -5.2217    -6.0907 C.3     
   2 C2            -0.1752    -4.0068    -5.3341 C.3     
   3 C3            -0.4948    -2.8880    -6.3276 C.3     
   4 N4            -1.3974    -4.3840    -4.6116 N.3     
   5 C5            -2.5176    -4.6343    -5.5547 C.3     
   6 C6            -3.7911    -4.4787    -4.6961 C.3     
   7 C7            -3.3714    -3.5783    -3.5160 C.3     
   8 C8            -1.8795    -3.2656    -3.7608 C.3     
   9 H9            -1.7712    -2.3157    -4.2843 H       
  10 C10           -1.1160    -3.2360    -2.4353 C.3     
  11 N11            0.3140    -3.0587    -2.6993 N.am    
  12 C12            0.8170    -1.8219    -2.8837 C.2     
  13 O13            0.0699    -0.8623    -2.9337 O.2     
  14 C14            2.2634    -1.6326    -3.0240 C.2     
  15 C15            2.8527    -1.8625    -4.2135 C.2     
  16 N16            4.1998    -1.7002    -4.3960 N.am    
  17 C17            4.7892    -1.9636    -5.7111 C.3     
  18 H18            5.8657    -1.7941    -5.6865 H       
  19 C19            4.4788    -3.4111    -6.1639 C.3     
  20 C20            3.2563    -3.2052    -7.0942 C.3     
  21 O21            3.5499    -1.9613    -7.7658 O.3     
  22 C22            4.1282    -1.0785    -6.7855 C.3     
  23 C23            4.9905    -1.3002    -3.3792 C.2     
  24 O24            6.1872    -1.1572    -3.5469 O.2     
  25 C25            4.3843    -1.0390    -2.0648 C.2     
  26 C26            4.9118    -0.6341    -0.8791 C.2     
  27 C27            6.3632    -0.3317    -0.6089 C.3     
  28 C28            3.8537    -0.5468     0.0551 C.ar    
  29 C29            3.7930    -0.1886     1.4087 C.ar    
  30 C30            2.5947    -0.2002     2.0605 C.ar    
  31 C31            1.4303    -0.5642     1.3950 C.ar    
  32 C32            1.4630    -0.9205     0.0660 C.ar    
  33 C33            2.6738    -0.9165    -0.6228 C.ar    
  34 N34            3.0174    -1.2086    -1.9198 N.pl3   
  35 H35            1.2241    -4.9227    -6.6919 H       
  36 H36            0.6703    -5.9877    -5.3776 H       
  37 H37           -0.4127    -5.6203    -6.7415 H       
  38 H38            0.5741    -3.6584    -4.6233 H       
  39 H39           -1.0163    -2.0819    -5.8116 H       
  40 H40            0.4322    -2.5060    -6.7551 H       
  41 H41           -1.1281    -3.2792    -7.1239 H       
  42 H42           -2.5090    -3.8986    -6.3589 H       
  43 H43           -2.4540    -5.6437    -5.9611 H       
  44 H44           -4.5816    -4.0006    -5.2746 H       
  45 H45           -4.1229    -5.4508    -4.3313 H       
  46 H46           -3.9559    -2.6582    -3.5153 H       
  47 H47           -3.4971    -4.1084    -2.5720 H       
  48 H48           -1.4784    -2.4081    -1.8257 H       
  49 H49           -1.2738    -4.1746    -1.9040 H       
  50 H50            0.8989    -3.8313    -2.7414 H       
  51 H51            2.2454    -2.1842    -5.0466 H       
  52 H52            5.3189    -3.8353    -6.7137 H       
  53 H53            4.2175    -4.0378    -5.3112 H       
  54 H54            3.1794    -4.0208    -7.8132 H       
  55 H55            2.3399    -3.1192    -6.5104 H       
  56 H56            3.3492    -0.4653    -6.3326 H       
  57 H57            4.8785    -0.4417    -7.2540 H       
  58 H58            6.5584     0.7217    -0.8098 H       
  59 H59            6.5921    -0.5512     0.4339 H       
  60 H60            6.9890    -0.9469    -1.2555 H       
  61 H61            4.6926     0.0954     1.9345 H       
  62 H62            2.5506     0.0759     3.1037 H       
  63 H63            0.4900    -0.5679     1.9262 H       
  64 H64            0.5523    -1.2021    -0.4417 H       
@<TRIPOS>BOND
   1    1    2 1
   2    1   35 1
   3    1   36 1
   4    1   37 1
   5    2    3 1
   6    2    4 1
   7    2   38 1
   8    3   39 1
   9    3   40 1
  10    3   41 1
  11    4    8 1
  12    4    5 1
  13    5    6 1
  14    5   42 1
  15    5   43 1
  16    6    7 1
  17    6   44 1
  18    6   45 1
  19    7    8 1
  20    7   46 1
  21    7   47 1
  22    8    9 1
  23    8   10 1
  24   10   11 1
  25   10   48 1
  26   10   49 1
  27   11   12 am
  28   11   50 1
  29   12   13 2
  30   12   14 1
  31   14   34 1
  32   14   15 2
  33   15   16 1
  34   15   51 1
  35   16   17 1
  36   16   23 am
  37   17   18 1
  38   17   22 1
  39   17   19 1
  40   19   20 1
  41   19   52 1
  42   19   53 1
  43   20   21 1
  44   20   54 1
  45   20   55 1
  46   21   22 1
  47   22   56 1
  48   22   57 1
  49   23   24 2
  50   23   25 1
  51   25   34 1
  52   25   26 2
  53   26   27 1
  54   26   28 1
  55   27   58 1
  56   27   59 1
  57   27   60 1
  58   28   33 ar
  59   28   29 ar
  60   29   30 ar
  61   29   61 1
  62   30   31 ar
  63   30   62 1
  64   31   32 ar
  65   31   63 1
  66   32   33 ar
  67   32   64 1
  68   33   34 1

#	End of record

