#	Name: ASD01915318
#	Creating user name:	WinNT
#	Creation time:	15. 06. 2019 20:05

#	Modifying user name:	WinNT
#	Modification time:	15. 06. 2019 20:05

#	Program:	/corina/corina34_cracker 3.40 0067  02.08.2006

@<TRIPOS>MOLECULE
ASD01915318
  50   53    0    0    0
SMALL
NO_CHARGES


@<TRIPOS>ATOM
   1 N1             0.2328     1.1652     0.1297 N.2     
   2 N2             0.5111    -0.1273    -0.3447 N.pl3   
   3 N3             1.7144    -0.1067    -0.8083 N.2     
   4 N4             2.2086     1.0721    -0.6676 N.2     
   5 C5             1.3159     1.8725    -0.0927 C.2     
   6 C6             1.5119     3.3287     0.2420 C.3     
   7 C7            -0.3547    -1.2303    -0.3190 C.ar    
   8 C8             0.0614    -2.4531    -0.8274 C.ar    
   9 C9            -0.7935    -3.5378    -0.8003 C.ar    
  10 C10           -2.0625    -3.4065    -0.2675 C.ar    
  11 C11           -2.4799    -2.1895     0.2398 C.ar    
  12 C12           -1.6279    -1.1029     0.2202 C.ar    
  13 C13           -0.3426    -4.8656    -1.3525 C.3     
  14 N14            2.5150     3.4584     1.3077 N.am    
  15 C15            2.9703     4.8022     1.6896 C.3     
  16 C16            3.4520     5.5351     0.4336 C.3     
  17 C17            2.3394     5.5234    -0.6172 C.3     
  18 C18            2.0099     4.0782    -0.9978 C.3     
  19 C19            3.0079     2.3656     1.9235 C.2     
  20 O20            2.5514     1.2704     1.6724 O.2     
  21 C21            4.1262     2.5045     2.9240 C.3     
  22 C22            4.1330     1.2972     3.8781 C.3     
  23 C23            5.4983     0.6018     3.6992 C.3     
  24 C24            6.4237     1.7168     3.1520 C.3     
  25 C25            5.4877     2.5006     2.1987 C.3     
  26 H26            0.5669     3.7574     0.5756 H       
  27 H27            1.0525    -2.5562    -1.2440 H       
  28 H28           -2.7292    -4.2559    -0.2477 H       
  29 H29           -3.4718    -2.0899     0.6554 H       
  30 H30           -1.9544    -0.1527     0.6165 H       
  31 H31            0.1279    -5.4477    -0.5601 H       
  32 H32           -1.2041    -5.4093    -1.7402 H       
  33 H33            0.3744    -4.7001    -2.1565 H       
  34 H34            2.1449     5.3532     2.1403 H       
  35 H35            3.7908     4.7211     2.4026 H       
  36 H36            3.7023     6.5652     0.6870 H       
  37 H37            4.3338     5.0333     0.0353 H       
  38 H38            1.4497     6.0034    -0.2094 H       
  39 H39            2.6706     6.0657    -1.5028 H       
  40 H40            2.9054     3.5902    -1.3826 H       
  41 H41            1.2339     4.0714    -1.7631 H       
  42 H42            4.0071     3.4278     3.4910 H       
  43 H43            4.0179     1.6346     4.9081 H       
  44 H44            3.3273     0.6108     3.6174 H       
  45 H45            5.8680     0.2350     4.6567 H       
  46 H46            5.4194    -0.2149     2.9815 H       
  47 H47            6.7763     2.3574     3.9603 H       
  48 H48            7.2625     1.2881     2.6036 H       
  49 H49            5.4071     1.9906     1.2387 H       
  50 H50            5.8497     3.5195     2.0613 H       
@<TRIPOS>BOND
   1    1    2 1
   2    1    5 2
   3    2    3 1
   4    2    7 1
   5    3    4 2
   6    4    5 1
   7    5    6 1
   8    6   14 1
   9    6   18 1
  10    6   26 1
  11    7    8 ar
  12    7   12 ar
  13    8    9 ar
  14    8   27 1
  15    9   10 ar
  16    9   13 1
  17   10   11 ar
  18   10   28 1
  19   11   12 ar
  20   11   29 1
  21   12   30 1
  22   13   31 1
  23   13   32 1
  24   13   33 1
  25   14   15 1
  26   14   19 am
  27   15   16 1
  28   15   34 1
  29   15   35 1
  30   16   17 1
  31   16   36 1
  32   16   37 1
  33   17   18 1
  34   17   38 1
  35   17   39 1
  36   18   40 1
  37   18   41 1
  38   19   20 2
  39   19   21 1
  40   21   22 1
  41   21   25 1
  42   21   42 1
  43   22   23 1
  44   22   43 1
  45   22   44 1
  46   23   24 1
  47   23   45 1
  48   23   46 1
  49   24   25 1
  50   24   47 1
  51   24   48 1
  52   25   49 1
  53   25   50 1

#	End of record

