#	Name: ASD04910141
#	Creating user name:	WinNT
#	Creation time:	15. 06. 2019 20:55

#	Modifying user name:	WinNT
#	Modification time:	15. 06. 2019 20:55

#	Program:	/corina/corina34_cracker 3.40 0067  02.08.2006

@<TRIPOS>MOLECULE
ASD04910141
  22   23    0    0    0
SMALL
NO_CHARGES


@<TRIPOS>ATOM
   1 C1            -0.0159     1.3191     0.0093 C.ar    
   2 N2             0.0021    -0.0041     0.0020 N.ar    
   3 C3             1.1477    -0.6651    -0.0125 C.ar    
   4 C4             2.3378     0.0457    -0.0201 C.ar    
   5 C5             2.2815     1.4308    -0.0121 C.ar    
   6 N6             1.1014     2.0280     0.0024 N.ar    
   7 N7            -1.2427     1.9827     0.0187 N.pl3   
   8 N8            -2.5074     1.3801     0.0218 N.2     
   9 C9            -3.4115     2.3249     0.0315 C.2     
  10 C10           -2.7567     3.5624     0.0349 C.2     
  11 C11           -1.4246     3.3297     0.0323 C.2     
  12 C12           -3.4198     4.9157     0.0455 C.3     
  13 F13           -4.8094     4.7541     0.0523 F       
  14 F14           -3.0265     5.6187     1.1894 F       
  15 F15           -3.0390     5.6306    -1.0951 F       
  16 N16            3.6396    -0.6586    -0.0359 N.pl3   
  17 O17            3.6733    -1.8761    -0.0423 O.2     
  18 O18            4.6771    -0.0206    -0.0424 O.2     
  19 H19            1.1558    -1.7450    -0.0180 H       
  20 H20            3.1899     2.0149    -0.0177 H       
  21 H21           -4.4812     2.1760     0.0358 H       
  22 H22           -0.6462     4.0784     0.0376 H       
@<TRIPOS>BOND
   1    1    2 ar
   2    1    6 ar
   3    1    7 1
   4    2    3 ar
   5    3    4 ar
   6    3   19 1
   7    4    5 ar
   8    4   16 1
   9    5    6 ar
  10    5   20 1
  11    7    8 1
  12    7   11 1
  13    8    9 2
  14    9   10 1
  15    9   21 1
  16   10   11 2
  17   10   12 1
  18   11   22 1
  19   12   13 1
  20   12   14 1
  21   12   15 1
  22   16   17 2
  23   16   18 2

#	End of record

