#	Name: ASD01150450
#	Creating user name:	WinNT
#	Creation time:	15. 06. 2019 19:04

#	Modifying user name:	WinNT
#	Modification time:	15. 06. 2019 19:04

#	Program:	/corina/corina34_cracker 3.40 0067  02.08.2006

@<TRIPOS>MOLECULE
ASD01150450
  42   44    0    0    0
SMALL
NO_CHARGES


@<TRIPOS>ATOM
   1 C1            -0.0166     1.3764     0.0096 C.ar    
   2 C2             0.0021    -0.0041     0.0020 C.ar    
   3 C3            -2.3975    -0.0410     0.0248 C.ar    
   4 C4            -2.4208     1.3398     0.0440 C.ar    
   5 C5            -1.2295     2.0535     0.0306 C.ar    
   6 N6            -1.2508     3.4532     0.0388 N.am    
   7 C7            -1.9179     4.1001     1.0107 C.2     
   8 N8            -1.9588     5.4450     1.0493 N.am    
   9 C9            -1.3245     6.1679     0.1030 C.2     
  10 C10           -0.5931     5.4664    -0.9626 C.2     
  11 N11           -0.5726     4.1595    -0.9616 N.2     
  12 O12           -1.3575     7.3841     0.1308 O.2     
  13 C13           -2.6930     6.1244     2.1196 C.3     
  14 O14           -2.4942     3.4595     1.8688 O.2     
  15 C15           -1.7694     6.3701     3.2848 C.ar    
  16 C16           -1.0419     7.5436     3.3543 C.ar    
  17 C17           -0.1947     7.7695     4.4227 C.ar    
  18 C18           -0.0749     6.8210     5.4228 C.ar    
  19 C19           -0.8032     5.6468     5.3527 C.ar    
  20 C20           -1.6544     5.4245     4.2866 C.ar    
  21 O21            0.0556     6.1658    -1.9298 O.3     
  22 C22            0.7421     5.4084    -2.9283 C.3     
  23 Cl23           0.9895     7.1038     6.7648 Cl      
  24 C24           -1.1874    -0.7139     0.0096 C.ar    
  25 C25            1.2777     2.1482     0.0014 C.3     
  26 F26           -1.1668    -2.0647     0.0017 F       
  27 O27            2.3767     1.2349    -0.0140 O.3     
  28 H28            0.9448    -0.5309    -0.0102 H       
  29 H29           -3.3237    -0.5965     0.0355 H       
  30 H30           -3.3648     1.8643     0.0554 H       
  31 H31           -3.0741     7.0767     1.7510 H       
  32 H32           -3.5262     5.4998     2.4418 H       
  33 H33           -1.1353     8.2838     2.5734 H       
  34 H34            0.3739     8.6861     4.4767 H       
  35 H35           -0.7101     4.9061     6.1331 H       
  36 H36           -2.2230     4.5080     4.2318 H       
  37 H37            1.5033     4.7884    -2.4547 H       
  38 H38            0.0307     4.7718    -3.4545 H       
  39 H39            1.2159     6.0871    -3.6375 H       
  40 H40            1.3182     2.7803    -0.8856 H       
  41 H41            1.3352     2.7708     0.8942 H       
  42 H42            3.2438     1.6630    -0.0200 H       
@<TRIPOS>BOND
   1    1    2 ar
   2    1   25 1
   3    1    5 ar
   4    2   24 ar
   5    2   28 1
   6    3    4 ar
   7    3   24 ar
   8    3   29 1
   9    4    5 ar
  10    4   30 1
  11    5    6 1
  12    6    7 am
  13    6   11 1
  14    7    8 am
  15    7   14 2
  16    8    9 am
  17    8   13 1
  18    9   10 1
  19    9   12 2
  20   10   11 2
  21   10   21 1
  22   13   15 1
  23   13   31 1
  24   13   32 1
  25   15   16 ar
  26   15   20 ar
  27   16   17 ar
  28   16   33 1
  29   17   18 ar
  30   17   34 1
  31   18   19 ar
  32   18   23 1
  33   19   20 ar
  34   19   35 1
  35   20   36 1
  36   21   22 1
  37   22   37 1
  38   22   38 1
  39   22   39 1
  40   24   26 1
  41   25   27 1
  42   25   40 1
  43   25   41 1
  44   27   42 1

#	End of record

