#	Name: ASD01510131
#	Creating user name:	WinNT
#	Creation time:	15. 06. 2019 19:21

#	Modifying user name:	WinNT
#	Modification time:	15. 06. 2019 19:21

#	Program:	/corina/corina34_cracker 3.40 0067  02.08.2006

@<TRIPOS>MOLECULE
ASD01510131
  47   50    0    0    0
SMALL
NO_CHARGES


@<TRIPOS>ATOM
   1 C1             0.0252     1.3432     0.2020 C.ar    
   2 C2             1.2202     2.0314     0.2468 C.ar    
   3 C3             2.4192     1.3412     0.2599 C.ar    
   4 C4             2.4285    -0.0418     0.2282 C.ar    
   5 C5             1.2404    -0.7418     0.1828 C.ar    
   6 C6             0.0277    -0.0518     0.1698 C.ar    
   7 C7            -1.2091    -0.7721     0.1237 C.1     
   8 C8            -2.2230    -1.3627     0.0859 C.1     
   9 P9            -3.7897    -2.2753     0.0275 P.3     
  10 C10           -4.7072    -1.8065    -1.4655 C.ar    
  11 C11           -6.0829    -1.9371    -1.5009 C.ar    
  12 C12           -6.7820    -1.5803    -2.6388 C.ar    
  13 C13           -6.1054    -1.0930    -3.7413 C.ar    
  14 C14           -4.7298    -0.9620    -3.7058 C.ar    
  15 C15           -4.0312    -1.3134    -2.5659 C.ar    
  16 C16           -3.4507    -4.0570    -0.0056 C.ar    
  17 C17           -3.2089    -4.7366     1.1737 C.ar    
  18 C18           -2.9506    -6.0943     1.1485 C.ar    
  19 C19           -2.9346    -6.7727    -0.0559 C.ar    
  20 C20           -3.1774    -6.0933    -1.2350 C.ar    
  21 C21           -3.4399    -4.7363    -1.2095 C.ar    
  22 C22           -4.7778    -1.8749     1.4951 C.ar    
  23 C23           -5.6462    -2.8132     2.0207 C.ar    
  24 C24           -6.3992    -2.5080     3.1391 C.ar    
  25 C25           -6.2834    -1.2648     3.7322 C.ar    
  26 C26           -5.4142    -0.3268     3.2071 C.ar    
  27 C27           -4.6581    -0.6334     2.0913 C.ar    
  28 H28           -0.9102     1.8830     0.1963 H       
  29 H29            1.2197     3.1111     0.2714 H       
  30 H30            3.3519     1.8845     0.2947 H       
  31 H31            3.3678    -0.5747     0.2387 H       
  32 H32            1.2490    -1.8215     0.1574 H       
  33 H33           -6.6115    -2.3182    -0.6396 H       
  34 H34           -7.8568    -1.6827    -2.6665 H       
  35 H35           -6.6512    -0.8185    -4.6319 H       
  36 H36           -4.2012    -0.5813    -4.5672 H       
  37 H37           -2.9564    -1.2111    -2.5381 H       
  38 H38           -3.2213    -4.2066     2.1146 H       
  39 H39           -2.7609    -6.6251     2.0697 H       
  40 H40           -2.7321    -7.8333    -0.0756 H       
  41 H41           -3.1646    -6.6232    -2.1760 H       
  42 H42           -3.6332    -4.2063    -2.1303 H       
  43 H43           -5.7368    -3.7845     1.5573 H       
  44 H44           -7.0783    -3.2408     3.5493 H       
  45 H45           -6.8722    -1.0261     4.6055 H       
  46 H46           -5.3240     0.6447     3.6703 H       
  47 H47           -3.9763     0.0981     1.6833 H       
@<TRIPOS>BOND
   1    1    6 ar
   2    1    2 ar
   3    1   28 1
   4    2    3 ar
   5    2   29 1
   6    3    4 ar
   7    3   30 1
   8    4   31 1
   9    4    5 ar
  10    5   32 1
  11    5    6 ar
  12    6    7 1
  13    7    8 3
  14    8    9 1
  15    9   16 1
  16    9   22 1
  17    9   10 1
  18   10   11 ar
  19   10   15 ar
  20   11   33 1
  21   11   12 ar
  22   12   34 1
  23   12   13 ar
  24   13   14 ar
  25   13   35 1
  26   14   15 ar
  27   14   36 1
  28   15   37 1
  29   16   21 ar
  30   16   17 ar
  31   17   18 ar
  32   17   38 1
  33   18   19 ar
  34   18   39 1
  35   19   20 ar
  36   19   40 1
  37   20   41 1
  38   20   21 ar
  39   21   42 1
  40   22   27 ar
  41   22   23 ar
  42   23   24 ar
  43   23   43 1
  44   24   25 ar
  45   24   44 1
  46   25   26 ar
  47   25   45 1
  48   26   46 1
  49   26   27 ar
  50   27   47 1

#	End of record

