#	Name: ASD00842017
#	Creating user name:	WinNT
#	Creation time:	15. 06. 2019 18:43

#	Modifying user name:	WinNT
#	Modification time:	15. 06. 2019 18:43

#	Program:	/corina/corina34_cracker 3.40 0067  02.08.2006

@<TRIPOS>MOLECULE
ASD00842017
  89   94    0    0    0
SMALL
NO_CHARGES


@<TRIPOS>ATOM
   1 C1             0.8923     1.5133    -0.6891 C.ar    
   2 C2             1.2230     0.1741    -0.8355 C.ar    
   3 C3             1.2016    -0.6679     0.2671 C.ar    
   4 C4             0.8511    -0.1710     1.5073 C.ar    
   5 C5             0.5214     1.1643     1.6505 C.ar    
   6 C6             0.5425     2.0054     0.5536 C.ar    
   7 C7             1.5598    -2.1234     0.1116 C.3     
   8 C8             1.3427    -2.8653     1.4132 C.2     
   9 C9             0.7385    -2.7594    -1.0118 C.3     
  10 C10           -0.7282    -2.5273    -0.7549 C.2     
  11 N11           -1.6497    -3.0605    -1.5814 N.am    
  12 O12           -1.0794    -1.8607     0.1955 O.2     
  13 C13           -3.0755    -2.7476    -1.4144 C.3     
  14 C14           -3.8595    -4.0596    -1.3116 C.3     
  15 C15           -3.5461    -4.9332    -2.5285 C.3     
  16 C16           -2.0520    -5.2637    -2.5501 C.3     
  17 C17           -1.2469    -3.9609    -2.6704 C.3     
  18 N18           -4.3217    -6.1783    -2.4499 N.3     
  19 C19           -4.1373    -6.9909    -3.6604 C.3     
  20 C20           -4.8958    -8.3112    -3.5057 C.3     
  21 N21           -6.3198    -8.0309    -3.2750 N.3     
  22 C22           -6.5042    -7.2183    -2.0645 C.3     
  23 C23           -5.7457    -5.8980    -2.2192 C.3     
  24 H24           -6.7349    -7.5828    -4.0780 H       
  25 O25            0.2897    -2.9956     2.0007 O.2     
  26 N26            2.5347    -3.3530     1.7950 N.am    
  27 C27            3.0396    -2.2793    -0.1563 C.ar    
  28 C28            3.5507    -3.0293     0.9002 C.ar    
  29 C29            3.8529    -1.8396    -1.1698 C.ar    
  30 C30            5.2184    -2.1455    -1.1487 C.ar    
  31 C31            5.7393    -2.8990    -0.0899 C.ar    
  32 C32            4.9113    -3.3361     0.9218 C.ar    
  33 F33            7.0561    -3.1996    -0.0604 F       
  34 C34            2.5389    -5.9336     2.7516 C.ar    
  35 C35            1.2931    -6.3832     2.3393 C.ar    
  36 C36            3.6005    -6.8148     2.8248 C.ar    
  37 C37            3.4221    -8.1435     2.4872 C.ar    
  38 C38            2.1811    -8.5941     2.0759 C.ar    
  39 C39            1.1165    -7.7173     2.0014 C.ar    
  40 H40            2.0442    -9.6326     1.8127 H       
  41 O41            0.2472    -5.5185     2.2669 O.3     
  42 C42           -1.0063    -6.0513     1.8344 C.3     
  43 C43           -2.0549    -4.9373     1.8162 C.3     
  44 C44            6.0759    -1.6917    -2.2020 C.1     
  45 N45            6.7562    -1.3318    -3.0375 N.1     
  46 O46            1.5671    -0.3124    -2.0569 O.3     
  47 C47            1.9832    -0.1043    -4.4284 C.3     
  48 C48            1.4590     0.5825    -3.1657 C.3     
  49 S49            2.7690    -4.2387     3.1745 S.o2    
  50 O50            4.1405    -4.0931     3.5166 O.2     
  51 O51            1.7078    -3.8973     4.0557 O.2     
  52 H52            0.9126     2.1717    -1.5450 H       
  53 H53            0.8342    -0.8260     2.3659 H       
  54 H54            0.2470     1.5508     2.6210 H       
  55 H55            0.2845     3.0479     0.6680 H       
  56 H56            1.0162    -2.3089    -1.9647 H       
  57 H57            0.9365    -3.8307    -1.0448 H       
  58 H58           -3.2175    -2.1648    -0.5043 H       
  59 H59           -3.4277    -2.1778    -2.2743 H       
  60 H60           -3.5705    -4.5858    -0.4019 H       
  61 H61           -4.9276    -3.8440    -1.2840 H       
  62 H62           -3.8124    -4.3965    -3.4391 H       
  63 H63           -1.7799    -5.7786    -1.6286 H       
  64 H64           -1.8335    -5.9051    -3.4039 H       
  65 H65           -1.4512    -3.4927    -3.6333 H       
  66 H66           -0.1824    -4.1801    -2.5868 H       
  67 H67           -4.5226    -6.4492    -4.5243 H       
  68 H68           -3.0762    -7.1956    -3.8028 H       
  69 H69           -4.7842    -8.9032    -4.4141 H       
  70 H70           -4.4922    -8.8653    -2.6583 H       
  71 H71           -7.5653    -7.0136    -1.9221 H       
  72 H72           -6.1189    -7.7600    -1.2006 H       
  73 H73           -5.8573    -5.3059    -1.3108 H       
  74 H74           -6.1493    -5.3439    -3.0666 H       
  75 H75            3.4405    -1.2593    -1.9819 H       
  76 H76            5.3183    -3.9172     1.7361 H       
  77 H77            4.5707    -6.4653     3.1458 H       
  78 H78            4.2534    -8.8306     2.5444 H       
  79 H79            0.1473    -8.0699     1.6808 H       
  80 H80           -0.8986    -6.4653     0.8318 H       
  81 H81           -1.3230    -6.8372     2.5199 H       
  82 H82           -2.1626    -4.5233     2.8187 H       
  83 H83           -1.7382    -4.1513     1.1306 H       
  84 H84           -3.0110    -5.3437     1.4862 H       
  85 H85            1.9826     0.6059    -5.2552 H       
  86 H86            2.9993    -0.4584    -4.2543 H       
  87 H87            1.3411    -0.9498    -4.6752 H       
  88 H88            0.4144     0.8587    -3.3093 H       
  89 H89            2.0478     1.4783    -2.9683 H       
@<TRIPOS>BOND
   1    1    2 ar
   2    1    6 ar
   3    1   52 1
   4    2    3 ar
   5    2   46 1
   6    3    4 ar
   7    3    7 1
   8    4    5 ar
   9    4   53 1
  10    5    6 ar
  11    5   54 1
  12    6   55 1
  13    7    8 1
  14    7    9 1
  15    7   27 1
  16    8   25 2
  17    8   26 am
  18    9   10 1
  19    9   56 1
  20    9   57 1
  21   10   11 am
  22   10   12 2
  23   11   13 1
  24   11   17 1
  25   13   14 1
  26   13   58 1
  27   13   59 1
  28   14   15 1
  29   14   60 1
  30   14   61 1
  31   15   16 1
  32   15   18 1
  33   15   62 1
  34   16   17 1
  35   16   63 1
  36   16   64 1
  37   17   65 1
  38   17   66 1
  39   18   19 1
  40   18   23 1
  41   19   20 1
  42   19   67 1
  43   19   68 1
  44   20   21 1
  45   20   69 1
  46   20   70 1
  47   21   22 1
  48   21   24 1
  49   22   23 1
  50   22   71 1
  51   22   72 1
  52   23   73 1
  53   23   74 1
  54   26   49 am
  55   26   28 1
  56   27   28 ar
  57   27   29 ar
  58   28   32 ar
  59   29   30 ar
  60   29   75 1
  61   30   31 ar
  62   30   44 1
  63   31   32 ar
  64   31   33 1
  65   32   76 1
  66   34   35 ar
  67   34   36 ar
  68   34   49 1
  69   35   41 1
  70   35   39 ar
  71   36   37 ar
  72   36   77 1
  73   37   38 ar
  74   37   78 1
  75   38   39 ar
  76   38   40 1
  77   39   79 1
  78   41   42 1
  79   42   43 1
  80   42   80 1
  81   42   81 1
  82   43   82 1
  83   43   83 1
  84   43   84 1
  85   44   45 3
  86   46   48 1
  87   47   48 1
  88   47   85 1
  89   47   86 1
  90   47   87 1
  91   48   88 1
  92   48   89 1
  93   49   50 2
  94   49   51 2

#	End of record

