#	Name: ASD02448114
#	Creating user name:	WinNT
#	Creation time:	15. 06. 2019 20:21

#	Modifying user name:	WinNT
#	Modification time:	15. 06. 2019 20:21

#	Program:	/corina/corina34_cracker 3.40 0067  02.08.2006

@<TRIPOS>MOLECULE
ASD02448114
  71   76    0    0    0
SMALL
NO_CHARGES


@<TRIPOS>ATOM
   1 C1            -0.0094     1.3526     0.0412 C.ar    
   2 C2             0.0091    -0.0275     0.0179 C.ar    
   3 C3             1.2205    -0.7057     0.0106 C.ar    
   4 C4             2.4137     0.0037     0.0268 C.ar    
   5 C5             2.3961     1.3839     0.0505 C.ar    
   6 C6             1.1843     2.0628     0.0573 C.ar    
   7 N7             1.1661     3.4606     0.0809 N.am    
   8 C8             0.1062     4.3576    -0.3977 C.3     
   9 C9             0.4732     5.7917    -0.1908 C.2     
  10 N10            1.6708     5.9883     0.3785 N.am    
  11 S11            2.3401     4.4916     0.6658 S.o2    
  12 O12           -0.2554     6.7061    -0.5132 O.2     
  13 O13            2.3944     4.3202     2.0754 O.2     
  14 O14            3.4654     4.3638    -0.1925 O.2     
  15 N15            1.2388    -2.1089    -0.0126 N.pl3   
  16 C16            0.6285    -2.9435     0.8847 C.2     
  17 C17            1.8607    -2.8912    -0.9330 C.2     
  18 N18            1.6576    -4.1428    -0.6289 N.2     
  19 C19            0.9021    -4.2132     0.4858 C.2     
  20 C20            0.4497    -5.4564     1.1572 C.ar    
  21 C21            0.8041    -6.7014     0.6374 C.ar    
  22 C22           -0.3258    -5.3844     2.3124 C.ar    
  23 C23           -0.7440    -6.5438     2.9338 C.ar    
  24 C24           -0.3940    -7.7771     2.4118 C.ar    
  25 C25            0.3805    -7.8551     1.2669 C.ar    
  26 C26            2.6550    -2.3936    -2.1130 C.3     
  27 C27            1.7730    -2.3608    -3.3345 C.ar    
  28 C28            0.9809    -1.2544    -3.5829 C.ar    
  29 C29            1.7628    -3.4348    -4.2061 C.ar    
  30 C30            0.9573    -3.4099    -5.3265 C.ar    
  31 C31            0.1534    -2.3002    -5.5789 C.ar    
  32 C32            0.1716    -1.2188    -4.7003 C.ar    
  33 C33           -0.7144    -2.2675    -6.7822 C.ar    
  34 C34           -1.5183    -1.1577    -7.0345 C.ar    
  35 C35           -0.7239    -3.3439    -7.6668 C.ar    
  36 C36           -1.5330    -3.3082    -8.7844 C.ar    
  37 C37           -2.3330    -2.2063    -9.0273 C.ar    
  38 C38           -2.3235    -1.1326    -8.1552 C.ar    
  39 C39           -3.2135    -2.1726   -10.2498 C.3     
  40 Cl40           1.7751    -6.8001    -0.7981 Cl      
  41 Cl41          -0.9230    -9.2312     3.1989 Cl      
  42 C42           -4.5801    -2.7711    -9.9107 C.3     
  43 C43           -5.4741    -2.7370   -11.1518 C.3     
  44 H44           -0.9517     1.8802     0.0424 H       
  45 H45           -0.9189    -0.5798     0.0058 H       
  46 H46            3.3559    -0.5242     0.0211 H       
  47 H47            3.3244     1.9357     0.0637 H       
  48 H48           -0.0580     4.1809    -1.4607 H       
  49 H49           -0.8148     4.1431     0.1443 H       
  50 H50            2.0726     6.8461     0.5876 H       
  51 H51            0.0429    -2.6496     1.7432 H       
  52 H52           -0.5991    -4.4229     2.7213 H       
  53 H53           -1.3452    -6.4886     3.8293 H       
  54 H54            0.6508    -8.8198     0.8635 H       
  55 H55            3.0248    -1.3896    -1.9047 H       
  56 H56            3.4978    -3.0615    -2.2912 H       
  57 H57            0.9955    -0.4170    -2.9011 H       
  58 H58            2.3866    -4.2943    -4.0097 H       
  59 H59            0.9504    -4.2489    -6.0066 H       
  60 H60           -0.4499    -0.3564    -4.8910 H       
  61 H61           -1.5116    -0.3189    -6.3543 H       
  62 H62           -0.0992    -4.2045    -7.4785 H       
  63 H63           -1.5412    -4.1420    -9.4708 H       
  64 H64           -2.9503    -0.2749    -8.3494 H       
  65 H65           -3.3400    -1.1410   -10.5782 H       
  66 H66           -2.7503    -2.7536   -11.0474 H       
  67 H67           -4.4536    -3.8028    -9.5823 H       
  68 H68           -5.0434    -2.1902    -9.1131 H       
  69 H69           -6.4477    -3.1634   -10.9102 H       
  70 H70           -5.6006    -1.7054   -11.4802 H       
  71 H71           -5.0109    -3.3179   -11.9494 H       
@<TRIPOS>BOND
   1    1    2 ar
   2    1    6 ar
   3    1   44 1
   4    2    3 ar
   5    2   45 1
   6    3    4 ar
   7    3   15 1
   8    4    5 ar
   9    4   46 1
  10    5    6 ar
  11    5   47 1
  12    6    7 1
  13    7    8 1
  14    7   11 am
  15    8    9 1
  16    8   48 1
  17    8   49 1
  18    9   10 am
  19    9   12 2
  20   10   11 am
  21   10   50 1
  22   11   13 2
  23   11   14 2
  24   15   16 1
  25   15   17 1
  26   16   19 2
  27   16   51 1
  28   17   18 2
  29   17   26 1
  30   18   19 1
  31   19   20 1
  32   20   21 ar
  33   20   22 ar
  34   21   40 1
  35   21   25 ar
  36   22   23 ar
  37   22   52 1
  38   23   24 ar
  39   23   53 1
  40   24   25 ar
  41   24   41 1
  42   25   54 1
  43   26   27 1
  44   26   55 1
  45   26   56 1
  46   27   28 ar
  47   27   29 ar
  48   28   32 ar
  49   28   57 1
  50   29   30 ar
  51   29   58 1
  52   30   31 ar
  53   30   59 1
  54   31   32 ar
  55   31   33 1
  56   32   60 1
  57   33   34 ar
  58   33   35 ar
  59   34   38 ar
  60   34   61 1
  61   35   36 ar
  62   35   62 1
  63   36   37 ar
  64   36   63 1
  65   37   39 1
  66   37   38 ar
  67   38   64 1
  68   39   42 1
  69   39   65 1
  70   39   66 1
  71   42   43 1
  72   42   67 1
  73   42   68 1
  74   43   69 1
  75   43   70 1
  76   43   71 1

#	End of record

