#	Name: ASD01881256
#	Creating user name:	WinNT
#	Creation time:	15. 06. 2019 19:42

#	Modifying user name:	WinNT
#	Modification time:	15. 06. 2019 19:42

#	Program:	/corina/corina34_cracker 3.40 0067  02.08.2006

@<TRIPOS>MOLECULE
ASD01881256
  64   65    0    0    0
SMALL
NO_CHARGES


@<TRIPOS>ATOM
   1 C1            -0.0919     1.1720     0.7397 C.2     
   2 N2            -0.0035    -0.0346     0.1458 N.am    
   3 O3             0.8864     1.6624     1.2675 O.2     
   4 O4            -1.2628     1.8364     0.7432 O.3     
   5 C5             2.6013    -2.6478    -0.0188 C.ar    
   6 C6             1.3389    -2.0650     0.1052 C.ar    
   7 C7             1.2300    -0.6627     0.0293 C.ar    
   8 C8             2.3951     0.0766    -0.1665 C.ar    
   9 C9             3.6004    -0.5833    -0.2778 C.ar    
  10 N10            3.6693    -1.9009    -0.2027 N.ar    
  11 C11            0.1427    -2.9009     0.3106 C.2     
  12 O12            0.2442    -4.2442     0.2693 O.3     
  13 C13           -4.5915    -7.0972     0.3505 C.3     
  14 N14           -4.7969    -7.1696    -1.1139 N.3     
  15 C15           -4.0475    -6.0044    -1.6359 C.3     
  16 C16           -2.9417    -5.7490    -0.6370 C.ar    
  17 C17           -1.7678    -5.0278    -0.7299 C.ar    
  18 C18           -0.9118    -4.9533     0.3592 C.ar    
  19 C19           -1.2376    -5.6045     1.5404 C.ar    
  20 C20           -2.4127    -6.3249     1.6290 C.ar    
  21 C21           -3.2647    -6.3981     0.5429 C.ar    
  22 C22           -6.2234    -7.0721    -1.4509 C.3     
  23 C23           -6.3763    -6.8063    -2.9498 C.3     
  24 C24           -7.8540    -6.5877    -3.2809 C.3     
  25 O25           -0.9351    -2.3791     0.5173 O.2     
  26 C26           -1.2845     3.1306     1.4013 C.3     
  27 C27           -0.2832     4.0658     0.7203 C.3     
  28 C28           -2.6892     3.7290     1.3036 C.3     
  29 C29           -0.9038     2.9606     2.8734 C.3     
  30 H30           -0.8012    -0.4644    -0.2003 H       
  31 H31            2.7031    -3.7213     0.0415 H       
  32 H32            2.3542     1.1540    -0.2306 H       
  33 H33            4.5049    -0.0131    -0.4296 H       
  34 H34           -5.3917    -6.5207     0.8149 H       
  35 H35           -4.5537    -8.1002     0.7755 H       
  36 H36           -3.6255    -6.2357    -2.6139 H       
  37 H37           -4.7020    -5.1354    -1.7035 H       
  38 H38           -1.5158    -4.5223    -1.6504 H       
  39 H39           -0.5727    -5.5485     2.3896 H       
  40 H40           -2.6662    -6.8321     2.5482 H       
  41 H41           -6.7219    -8.0070    -1.1949 H       
  42 H42           -6.6744    -6.2542    -0.8890 H       
  43 H43           -5.8078    -5.9167    -3.2209 H       
  44 H44           -6.0010    -7.6622    -3.5107 H       
  45 H45           -8.4225    -7.4773    -3.0098 H       
  46 H46           -8.2292    -5.7318    -2.7200 H       
  47 H47           -7.9629    -6.3984    -4.3488 H       
  48 H48           -0.5544     4.1869    -0.3284 H       
  49 H49           -0.2995     5.0373     1.2143 H       
  50 H50            0.7175     3.6395     0.7899 H       
  51 H51           -3.4025     3.0627     1.7887 H       
  52 H52           -2.7054     4.7005     1.7976 H       
  53 H53           -2.9604     3.8501     0.2548 H       
  54 H54            0.0969     2.5343     2.9430 H       
  55 H55           -0.9201     3.9321     3.3674 H       
  56 H56           -1.6171     2.2943     3.3585 H       
  57 C57           10.6763    12.0255     9.5142 C.2     
  58 C58           10.6968    10.5187     9.5059 C.3     
  59 O59           11.7144    12.6438     9.5076 O.2     
  60 O60            9.5049    12.6808     9.5233 O.3     
  61 F61           12.0219    10.0704     9.4909 F       
  62 F62           10.0546    10.0373    10.6518 F       
  63 F63           10.0328    10.0496     8.3674 F       
  64 H64            9.5424    13.6471     9.5284 H       
@<TRIPOS>BOND
   1    1    2 am
   2    1    3 2
   3    1    4 1
   4    2    7 1
   5    2   30 1
   6    4   26 1
   7    5    6 ar
   8    5   10 ar
   9    5   31 1
  10    6    7 ar
  11    6   11 1
  12    7    8 ar
  13    8    9 ar
  14    8   32 1
  15    9   10 ar
  16    9   33 1
  17   11   12 1
  18   11   25 2
  19   12   18 1
  20   13   14 1
  21   13   21 1
  22   13   34 1
  23   13   35 1
  24   14   15 1
  25   14   22 1
  26   15   16 1
  27   15   36 1
  28   15   37 1
  29   16   17 ar
  30   16   21 ar
  31   17   18 ar
  32   17   38 1
  33   18   19 ar
  34   19   20 ar
  35   19   39 1
  36   20   21 ar
  37   20   40 1
  38   22   23 1
  39   22   41 1
  40   22   42 1
  41   23   24 1
  42   23   43 1
  43   23   44 1
  44   24   45 1
  45   24   46 1
  46   24   47 1
  47   26   27 1
  48   26   29 1
  49   26   28 1
  50   27   48 1
  51   27   49 1
  52   27   50 1
  53   28   51 1
  54   28   52 1
  55   28   53 1
  56   29   54 1
  57   29   55 1
  58   29   56 1
  59   57   58 1
  60   57   59 2
  61   57   60 1
  62   58   61 1
  63   58   62 1
  64   58   63 1
  65   60   64 1

#	End of record

