#	Name: ASD01810223
#	Creating user name:	WinNT
#	Creation time:	15. 06. 2019 19:24

#	Modifying user name:	WinNT
#	Modification time:	15. 06. 2019 19:24

#	Program:	/corina/corina34_cracker 3.40 0067  02.08.2006

@<TRIPOS>MOLECULE
ASD01810223
  42   45    0    0    0
SMALL
NO_CHARGES


@<TRIPOS>ATOM
   1 C1             7.3267     1.2315    -0.2612 C.ar    
   2 C2             7.2502    -0.1542    -0.2621 C.ar    
   3 C3             6.0297    -0.7920    -0.1881 C.ar    
   4 C4             4.8560    -0.0421    -0.1108 C.ar    
   5 C5             4.9382     1.3600    -0.1097 C.ar    
   6 C6             6.1804     1.9908    -0.1856 C.ar    
   7 N7             3.6292    -0.6669    -0.0369 N.pl3   
   8 C8             2.4750     0.0073     0.0384 C.2     
   9 C9             2.4284     1.3870     0.0471 C.2     
  10 C10            3.6900     2.1413    -0.0275 C.2     
  11 O11            3.7026     3.3597    -0.0229 O.2     
  12 C12            1.1408     2.0907     0.1295 C.2     
  13 O13            1.1084     3.4383     0.1372 O.3     
  14 O14            0.1049     1.4575     0.1907 O.2     
  15 C15            3.5869    -2.1313    -0.0413 C.3     
  16 C16            3.4437    -2.6254    -1.4578 C.ar    
  17 C17            4.5564    -2.7740    -2.2722 C.ar    
  18 N18            4.3962    -3.2102    -3.5097 N.ar    
  19 C19            3.1893    -3.5040    -3.9738 C.ar    
  20 N20            2.1055    -3.3730    -3.2213 N.ar    
  21 C21            2.1969    -2.9468    -1.9733 C.ar    
  22 C22            3.0484    -3.9903    -5.3679 C.ar    
  23 C23            1.7888    -4.3047    -5.8751 C.ar    
  24 C24            1.6636    -4.7563    -7.1731 C.ar    
  25 C25            2.7852    -4.8976    -7.9703 C.ar    
  26 C26            4.0378    -4.5871    -7.4722 C.ar    
  27 C27            4.1744    -4.1292    -6.1775 C.ar    
  28 F28            5.9707    -2.1418    -0.1909 F       
  29 H29            8.2901     1.7166    -0.3155 H       
  30 H30            8.1560    -0.7392    -0.3218 H       
  31 H31            6.2427     3.0690    -0.1844 H       
  32 H32            1.5496    -0.5467     0.0938 H       
  33 H33            0.2382     3.8563     0.1926 H       
  34 H34            4.5088    -2.5227     0.3886 H       
  35 H35            2.7369    -2.4720     0.5500 H       
  36 H36            5.5419    -2.5360    -1.8999 H       
  37 H37            1.3105    -2.8421    -1.3653 H       
  38 H38            0.9125    -4.1954    -5.2533 H       
  39 H39            0.6881    -5.0002    -7.5672 H       
  40 H40            2.6827    -5.2520    -8.9853 H       
  41 H41            4.9101    -4.6993    -8.0990 H       
  42 H42            5.1528    -3.8867    -5.7897 H       
@<TRIPOS>BOND
   1    1    2 ar
   2    1    6 ar
   3    1   29 1
   4    2    3 ar
   5    2   30 1
   6    3    4 ar
   7    3   28 1
   8    4    5 ar
   9    4    7 1
  10    5    6 ar
  11    5   10 1
  12    6   31 1
  13    7    8 1
  14    7   15 1
  15    8    9 2
  16    8   32 1
  17    9   10 1
  18    9   12 1
  19   10   11 2
  20   12   13 1
  21   12   14 2
  22   13   33 1
  23   15   16 1
  24   15   34 1
  25   15   35 1
  26   16   17 ar
  27   16   21 ar
  28   17   18 ar
  29   17   36 1
  30   18   19 ar
  31   19   20 ar
  32   19   22 1
  33   20   21 ar
  34   21   37 1
  35   22   23 ar
  36   22   27 ar
  37   23   24 ar
  38   23   38 1
  39   24   25 ar
  40   24   39 1
  41   25   26 ar
  42   25   40 1
  43   26   27 ar
  44   26   41 1
  45   27   42 1

#	End of record

