#	Name: ASD01180025
#	Creating user name:	WinNT
#	Creation time:	15. 06. 2019 19:06

#	Modifying user name:	WinNT
#	Modification time:	15. 06. 2019 19:06

#	Program:	/corina/corina34_cracker 3.40 0067  02.08.2006

@<TRIPOS>MOLECULE
ASD01180025
  44   47    0    0    0
SMALL
NO_CHARGES


@<TRIPOS>ATOM
   1 N1            -0.0154     1.3010    -0.0951 N.ar    
   2 C2             0.0045    -0.0080    -0.0247 C.ar    
   3 C3             1.2241    -0.7016     0.0694 C.ar    
   4 N4             2.3683    -0.0449     0.0887 N.ar    
   5 C5             2.3658     1.2924     0.0177 C.ar    
   6 C6             3.5675     2.0194     0.0357 C.ar    
   7 C7             3.5358     3.3795    -0.0385 C.ar    
   8 C8             2.3234     4.0638    -0.1323 C.ar    
   9 C9             1.1395     3.3900    -0.1523 C.ar    
  10 C10            1.1345     1.9872    -0.0775 C.ar    
  11 S11           -1.5110    -0.9065    -0.0476 S.o2    
  12 O12           -2.4640     0.0263    -0.5386 O.2     
  13 O13           -1.2053    -2.0909    -0.7708 O.2     
  14 C14           -1.8359    -1.2907     1.6952 C.3     
  15 Cl15           2.3235     5.7973    -0.2244 Cl      
  16 Cl16           5.0239     4.2733    -0.0153 Cl      
  17 C17            2.3150    -4.1590     0.8288 C.3     
  18 C18            3.5763    -5.0001     0.5995 C.3     
  19 C19            3.6120    -5.4246    -0.8672 C.3     
  20 C20            3.4237    -4.2324    -1.7685 C.ar    
  21 C21            2.9049    -3.0389    -1.3199 C.ar    
  22 C22            2.4912    -2.8217     0.1122 C.3     
  23 C23            3.7936    -4.3641    -3.1010 C.ar    
  24 C24            3.6427    -3.3102    -3.9779 C.ar    
  25 C25            3.1182    -2.1126    -3.5281 C.ar    
  26 C26            2.7512    -1.9795    -2.2052 C.ar    
  27 N27            1.2243    -2.0867     0.1428 N.pl3   
  28 H28            4.5129     1.5024     0.1083 H       
  29 H29            0.2084     3.9323    -0.2249 H       
  30 H30           -1.9210    -0.3635     2.2619 H       
  31 H31           -2.7663    -1.8527     1.7761 H       
  32 H32           -1.0154    -1.8868     2.0949 H       
  33 H33            1.4474    -4.6806     0.4247 H       
  34 H34            2.1767    -3.9880     1.8964 H       
  35 H35            4.4606    -4.4065     0.8316 H       
  36 H36            3.5491    -5.8838     1.2369 H       
  37 H37            4.5736    -5.8902    -1.0833 H       
  38 H38            2.8150    -6.1447    -1.0525 H       
  39 H39            3.2570    -2.2382     0.6231 H       
  40 H40            4.2029    -5.2994    -3.4532 H       
  41 H41            3.9330    -3.4201    -5.0123 H       
  42 H42            2.9960    -1.2843    -4.2103 H       
  43 H43            2.3410    -1.0439    -1.8547 H       
  44 H44            0.3855    -2.5687     0.2145 H       
@<TRIPOS>BOND
   1    1    2 ar
   2    1   10 ar
   3    2    3 ar
   4    2   11 1
   5    3    4 ar
   6    3   27 1
   7    4    5 ar
   8    5    6 ar
   9    5   10 ar
  10    6    7 ar
  11    6   28 1
  12    7    8 ar
  13    7   16 1
  14    8    9 ar
  15    8   15 1
  16    9   10 ar
  17    9   29 1
  18   11   12 2
  19   11   13 2
  20   11   14 1
  21   14   30 1
  22   14   31 1
  23   14   32 1
  24   17   18 1
  25   17   22 1
  26   17   33 1
  27   17   34 1
  28   18   19 1
  29   18   35 1
  30   18   36 1
  31   19   20 1
  32   19   37 1
  33   19   38 1
  34   20   21 ar
  35   20   23 ar
  36   21   22 1
  37   21   26 ar
  38   22   27 1
  39   22   39 1
  40   23   24 ar
  41   23   40 1
  42   24   25 ar
  43   24   41 1
  44   25   26 ar
  45   25   42 1
  46   26   43 1
  47   27   44 1

#	End of record

