#	Name: ASD01814111
#	Creating user name:	WinNT
#	Creation time:	15. 06. 2019 19:31

#	Modifying user name:	WinNT
#	Modification time:	15. 06. 2019 19:31

#	Program:	/corina/corina34_cracker 3.40 0067  02.08.2006

@<TRIPOS>MOLECULE
ASD01814111
  48   51    0    0    0
SMALL
NO_CHARGES


@<TRIPOS>ATOM
   1 C1            -0.0167     1.3820     0.0096 C.ar    
   2 C2             0.0021    -0.0041     0.0020 C.ar    
   3 C3             1.1959    -0.6932    -0.0127 C.ar    
   4 C4             2.4016     0.0019    -0.0200 C.ar    
   5 C5             2.3831     1.4075    -0.0128 C.ar    
   6 C6             1.1665     2.0939     0.0022 C.ar    
   7 N7             3.6010    -0.6771    -0.0337 N.pl3   
   8 C8             4.7870    -0.0549    -0.0404 C.2     
   9 C9             4.8957     1.3208    -0.0340 C.2     
  10 C10            3.6667     2.1313    -0.0207 C.2     
  11 O11            3.7091     3.3491    -0.0150 O.2     
  12 C12            6.2161     1.9660    -0.0412 C.2     
  13 O13            6.3092     3.3109    -0.0348 O.3     
  14 O14            7.2244     1.2870    -0.0529 O.2     
  15 C15            3.5775    -2.1419    -0.0409 C.3     
  16 C16            3.5572    -2.6371    -1.4640 C.ar    
  17 C17            4.7461    -2.8829    -2.1261 C.ar    
  18 C18            4.7308    -3.3364    -3.4306 C.ar    
  19 C19            3.5200    -3.5457    -4.0771 C.ar    
  20 C20            2.3279    -3.2984    -3.4096 C.ar    
  21 C21            2.3497    -2.8500    -2.1034 C.ar    
  22 F22            1.1476     3.4448     0.0091 F       
  23 N23            3.5011    -4.0053    -5.4009 N.pl3   
  24 C24            2.3980    -4.2466    -6.1354 C.2     
  25 C25            2.8164    -4.6828    -7.3762 C.2     
  26 C26            4.2295    -4.6951    -7.3603 C.2     
  27 N27            4.6252    -4.2857    -6.1859 N.2     
  28 C28            7.6453     3.8792    -0.0425 C.3     
  29 C29            7.5501     5.4062    -0.0337 C.3     
  30 C30            1.9757    -5.0538    -8.4745 C.1     
  31 N31            1.3088    -5.3480    -9.3457 N.1     
  32 H32           -0.9604     1.9071     0.0170 H       
  33 H33           -0.9295    -0.5505     0.0080 H       
  34 H34            1.1956    -1.7731    -0.0181 H       
  35 H35            5.6884    -0.6497    -0.0508 H       
  36 H36            4.4660    -2.5220     0.4634 H       
  37 H37            2.6863    -2.4936     0.4789 H       
  38 H38            5.6876    -2.7199    -1.6226 H       
  39 H39            5.6597    -3.5276    -3.9474 H       
  40 H40            1.3846    -3.4599    -3.9099 H       
  41 H41            1.4228    -2.6578    -1.5835 H       
  42 H42            1.3749    -4.1216    -5.8128 H       
  43 H43            4.8703    -4.9880    -8.1788 H       
  44 H44            8.1879     3.5438     0.8413 H       
  45 H45            8.1736     3.5533    -0.9386 H       
  46 H46            8.5531     5.8328    -0.0395 H       
  47 H47            7.0075     5.7415    -0.9175 H       
  48 H48            7.0218     5.7321     0.8623 H       
@<TRIPOS>BOND
   1    1    2 ar
   2    1    6 ar
   3    1   32 1
   4    2    3 ar
   5    2   33 1
   6    3    4 ar
   7    3   34 1
   8    4    5 ar
   9    4    7 1
  10    5    6 ar
  11    5   10 1
  12    6   22 1
  13    7    8 1
  14    7   15 1
  15    8    9 2
  16    8   35 1
  17    9   10 1
  18    9   12 1
  19   10   11 2
  20   12   13 1
  21   12   14 2
  22   13   28 1
  23   15   16 1
  24   15   36 1
  25   15   37 1
  26   16   17 ar
  27   16   21 ar
  28   17   18 ar
  29   17   38 1
  30   18   19 ar
  31   18   39 1
  32   19   20 ar
  33   19   23 1
  34   20   21 ar
  35   20   40 1
  36   21   41 1
  37   23   24 1
  38   23   27 1
  39   24   25 2
  40   24   42 1
  41   25   26 1
  42   25   30 1
  43   26   27 2
  44   26   43 1
  45   28   29 1
  46   28   44 1
  47   28   45 1
  48   29   46 1
  49   29   47 1
  50   29   48 1
  51   30   31 3

#	End of record

