#	Name: ASD01208934
#	Creating user name:	WinNT
#	Creation time:	15. 06. 2019 19:10

#	Modifying user name:	WinNT
#	Modification time:	15. 06. 2019 19:10

#	Program:	/corina/corina34_cracker 3.40 0067  02.08.2006

@<TRIPOS>MOLECULE
ASD01208934
  59   62    0    0    0
SMALL
NO_CHARGES


@<TRIPOS>ATOM
   1 S1             0.0281     1.9173     1.7190 S.3     
   2 C2             0.0833     0.2991     1.1715 C.2     
   3 N3             1.3141    -0.0716     0.9675 N.2     
   4 C4             2.2528     0.8091     1.2029 C.2     
   5 C5             1.7854     2.0176     1.6393 C.2     
   6 C6             2.5989     3.1857     1.9784 C.2     
   7 O7             3.8112     3.1320     1.8817 O.2     
   8 N8             2.0060     4.3211     2.3978 N.am    
   9 C9            -0.8702    -1.7703     0.5382 C.2     
  10 C10           -2.0547    -2.6290     0.3268 C.ar    
  11 C11           -1.8969    -3.9403    -0.1242 C.ar    
  12 C12           -3.0092    -4.7416    -0.3205 C.ar    
  13 C13           -4.2793    -4.2426    -0.0694 C.ar    
  14 C14           -4.4409    -2.9395     0.3786 C.ar    
  15 C15           -3.3331    -2.1328     0.5832 C.ar    
  16 O16            0.2431    -2.2060     0.3192 O.2     
  17 N17           -1.0248    -0.5043     0.9738 N.am    
  18 O18           -5.6870    -2.4555     0.6226 O.3     
  19 C19           -6.2387    -1.6222    -0.2971 C.ar    
  20 C20           -7.4893    -1.0639    -0.0641 C.ar    
  21 C21           -8.0524    -0.2179    -0.9949 C.ar    
  22 C22           -7.3641     0.0782    -2.1731 C.ar    
  23 C23           -6.1072    -0.4846    -2.4035 C.ar    
  24 C24           -5.5486    -1.3258    -1.4657 C.ar    
  25 O25           -7.4158     1.3553    -4.3482 O.3     
  26 C26           -7.9646     0.9844    -3.1740 C.2     
  27 N27           -9.1319     1.5785    -3.0855 N.2     
  28 N28           -9.3264     2.2908    -4.1392 N.2     
  29 C29           -8.3001     2.1808    -4.9352 C.2     
  30 C30           -8.1345     2.8567    -6.2720 C.3     
  31 O31           -2.8565    -6.0186    -0.7601 O.3     
  32 C32           -3.7340    -7.8468    -2.0746 C.3     
  33 C33           -4.0482    -6.7498    -1.0555 C.3     
  34 C34           -4.5880    -7.3850     0.2275 C.3     
  35 O35           -2.8417    -8.7981    -1.4907 O.3     
  36 C36           -2.4826    -9.8705    -2.3641 C.3     
  37 H37            3.3034     0.5999     1.0651 H       
  38 H38            1.0400     4.3639     2.4749 H       
  39 H39            2.5453     5.0954     2.6226 H       
  40 H40           -0.9087    -4.3295    -0.3202 H       
  41 H41           -5.1446    -4.8702    -0.2235 H       
  42 H42           -3.4594    -1.1201     0.9365 H       
  43 H43           -1.9133    -0.1566     1.1486 H       
  44 H44           -8.0210    -1.2934     0.8475 H       
  45 H45           -9.0250     0.2152    -0.8134 H       
  46 H46           -5.5720    -0.2582    -3.3138 H       
  47 H47           -4.5748    -1.7586    -1.6414 H       
  48 H48           -8.5386     2.2158    -7.0556 H       
  49 H49           -8.6692     3.8065    -6.2675 H       
  50 H50           -7.0759     3.0365    -6.4595 H       
  51 H51           -4.6575    -8.3467    -2.3668 H       
  52 H52           -3.2672    -7.4029    -2.9540 H       
  53 H53           -4.7965    -6.0735    -1.4687 H       
  54 H54           -4.8118    -6.6035     0.9536 H       
  55 H55           -5.4969    -7.9428     0.0022 H       
  56 H56           -3.8397    -8.0614     0.6407 H       
  57 H57           -3.3801   -10.4124    -2.6623 H       
  58 H58           -1.9898    -9.4686    -3.2495 H       
  59 H59           -1.8038   -10.5486    -1.8469 H       
@<TRIPOS>BOND
   1    1    2 1
   2    1    5 1
   3    2    3 2
   4    2   17 1
   5    3    4 1
   6    4    5 2
   7    4   37 1
   8    5    6 1
   9    6    7 2
  10    6    8 am
  11    8   38 1
  12    8   39 1
  13    9   10 1
  14    9   16 2
  15    9   17 am
  16   10   11 ar
  17   10   15 ar
  18   11   12 ar
  19   11   40 1
  20   12   13 ar
  21   12   31 1
  22   13   14 ar
  23   13   41 1
  24   14   15 ar
  25   14   18 1
  26   15   42 1
  27   17   43 1
  28   18   19 1
  29   19   20 ar
  30   19   24 ar
  31   20   21 ar
  32   20   44 1
  33   21   22 ar
  34   21   45 1
  35   22   23 ar
  36   22   26 1
  37   23   24 ar
  38   23   46 1
  39   24   47 1
  40   25   26 1
  41   25   29 1
  42   26   27 2
  43   27   28 1
  44   28   29 2
  45   29   30 1
  46   30   48 1
  47   30   49 1
  48   30   50 1
  49   31   33 1
  50   32   33 1
  51   32   35 1
  52   32   51 1
  53   32   52 1
  54   33   34 1
  55   33   53 1
  56   34   54 1
  57   34   55 1
  58   34   56 1
  59   35   36 1
  60   36   57 1
  61   36   58 1
  62   36   59 1

#	End of record

