#	Name: ASD03430831
#	Creating user name:	WinNT
#	Creation time:	15. 06. 2019 20:41

#	Modifying user name:	WinNT
#	Modification time:	15. 06. 2019 20:41

#	Program:	/corina/corina34_cracker 3.40 0067  02.08.2006

@<TRIPOS>MOLECULE
ASD03430831
  64   69    0    0    0
SMALL
NO_CHARGES


@<TRIPOS>ATOM
   1 C1            -0.1046     0.3677     1.9594 C.ar    
   2 C2            -0.0514    -0.9399     1.5297 C.ar    
   3 C3             1.1627    -1.5211     1.2295 C.ar    
   4 C4             2.3431    -0.7951     1.3663 C.ar    
   5 C5             2.2799     0.5269     1.7903 C.ar    
   6 C6             1.0581     1.1188     2.0867 C.ar    
   7 O7             3.4288    -1.5577     1.0527 O.3     
   8 C8             1.5520    -2.8854     0.7287 C.3     
   9 C9             3.0049    -2.6912     0.2719 C.3     
  10 C10            0.5662    -4.8980     1.2751 C.ar    
  11 C11            1.4363    -3.9399     1.7894 C.ar    
  12 C12            0.6727    -3.3532    -0.3949 C.2     
  13 N13            0.1390    -4.5271    -0.0019 N.am    
  14 O14            0.4802    -2.7860    -1.4496 O.2     
  15 C15            1.9872    -4.0945     3.0414 C.ar    
  16 C16            1.6795    -5.2090     3.8018 C.ar    
  17 C17            0.8165    -6.1665     3.3014 C.ar    
  18 C18            0.2614    -6.0161     2.0475 C.ar    
  19 C19           -0.7814    -5.3215    -0.8192 C.3     
  20 C20           -2.2075    -4.7985    -0.6357 C.3     
  21 N21           -3.1234    -5.5187    -1.5323 N.am    
  22 C22           -4.1215    -6.2321    -0.7148 C.3     
  23 C23           -4.1706    -5.4509     0.6220 C.3     
  24 C24           -2.6807    -5.0606     0.8096 C.3     
  25 C25           -1.2584     1.2593     2.3742 C.3     
  26 C26           -0.5262     2.4150     3.0965 C.3     
  27 O27            0.7802     2.3878     2.4967 O.3     
  28 O28           -3.8992    -6.3051    -3.5875 O.3     
  29 C29           -3.7348    -6.3085    -5.0301 C.3     
  30 C30           -2.3145    -6.7568    -5.3805 C.3     
  31 C31           -4.7433    -7.2739    -5.6561 C.3     
  32 C32           -3.9733    -4.8984    -5.5739 C.3     
  33 C33           -3.0614    -5.5251    -2.8786 C.2     
  34 O34           -2.2493    -4.8270    -3.4527 O.2     
  35 H35           -0.9623    -1.5112     1.4280 H       
  36 H36            3.1898     1.1000     1.8911 H       
  37 H37            3.0488    -2.4654    -0.7935 H       
  38 H38            3.6054    -3.5698     0.5075 H       
  39 H39            2.6607    -3.3453     3.4306 H       
  40 H40            2.1126    -5.3309     4.7836 H       
  41 H41            0.5762    -7.0362     3.8948 H       
  42 H42           -0.4116    -6.7684     1.6633 H       
  43 H43           -0.4972    -5.2413    -1.8684 H       
  44 H44           -0.7345    -6.3653    -0.5088 H       
  45 H45           -2.2411    -3.7306    -0.8514 H       
  46 H46           -5.0962    -6.2112    -1.2024 H       
  47 H47           -3.8050    -7.2606    -0.5417 H       
  48 H48           -4.7986    -4.5644     0.5337 H       
  49 H49           -4.5124    -6.0904     1.4359 H       
  50 H50           -2.1201    -5.8819     1.2560 H       
  51 H51           -2.5917    -4.1580     1.4142 H       
  52 H52           -1.8003     1.6260     1.5024 H       
  53 H53           -1.9289     0.7365     3.0563 H       
  54 H54           -1.0206     3.3668     2.9020 H       
  55 H55           -0.4635     2.2229     4.1676 H       
  56 H56           -2.1119    -7.7203    -4.9129 H       
  57 H57           -2.2197    -6.8509    -6.4623 H       
  58 H58           -1.6002    -6.0186    -5.0160 H       
  59 H59           -5.7546    -6.9067    -5.4810 H       
  60 H60           -4.5626    -7.3431    -6.7287 H       
  61 H61           -4.6314    -8.2596    -5.2044 H       
  62 H62           -3.1785    -4.2369    -5.2294 H       
  63 H63           -3.9770    -4.9251    -6.6636 H       
  64 H64           -4.9343    -4.5288    -5.2162 H       
@<TRIPOS>BOND
   1    1    2 ar
   2    1    6 ar
   3    1   25 1
   4    2    3 ar
   5    2   35 1
   6    3    4 ar
   7    3    8 1
   8    4    5 ar
   9    4    7 1
  10    5    6 ar
  11    5   36 1
  12    6   27 1
  13    7    9 1
  14    8    9 1
  15    8   11 1
  16    8   12 1
  17    9   37 1
  18    9   38 1
  19   10   11 ar
  20   10   13 1
  21   10   18 ar
  22   11   15 ar
  23   12   13 am
  24   12   14 2
  25   13   19 1
  26   15   16 ar
  27   15   39 1
  28   16   17 ar
  29   16   40 1
  30   17   18 ar
  31   17   41 1
  32   18   42 1
  33   19   20 1
  34   19   43 1
  35   19   44 1
  36   20   21 1
  37   20   24 1
  38   20   45 1
  39   21   22 1
  40   21   33 am
  41   22   23 1
  42   22   46 1
  43   22   47 1
  44   23   24 1
  45   23   48 1
  46   23   49 1
  47   24   50 1
  48   24   51 1
  49   25   26 1
  50   25   52 1
  51   25   53 1
  52   26   27 1
  53   26   54 1
  54   26   55 1
  55   28   29 1
  56   28   33 1
  57   29   30 1
  58   29   31 1
  59   29   32 1
  60   30   56 1
  61   30   57 1
  62   30   58 1
  63   31   59 1
  64   31   60 1
  65   31   61 1
  66   32   62 1
  67   32   63 1
  68   32   64 1
  69   33   34 2

#	End of record

