#	Name: ASD03240188
#	Creating user name:	WinNT
#	Creation time:	15. 06. 2019 20:34

#	Modifying user name:	WinNT
#	Modification time:	15. 06. 2019 20:34

#	Program:	/corina/corina34_cracker 3.40 0067  02.08.2006

@<TRIPOS>MOLECULE
ASD03240188
  84   91    0    0    0
SMALL
NO_CHARGES


@<TRIPOS>ATOM
   1 C1            -0.0171     1.4111     0.0098 C.ar    
   2 C2             0.0021    -0.0041     0.0020 C.ar    
   3 C3             1.1864     2.1158     0.0021 C.ar    
   4 C4             2.3720     1.3855    -0.0131 C.ar    
   5 C5             2.3146    -0.0220    -0.0202 C.ar    
   6 N6             1.1561    -0.6606    -0.0125 N.ar    
   7 C7             3.5744    -0.8012    -0.0369 C.ar    
   8 C8             3.6803     2.0818    -0.0224 C.ar    
   9 C9             3.9251     3.0995    -0.9435 C.ar    
  10 C10            5.1450     3.7445    -0.9470 C.ar    
  11 C11            6.1241     3.3831    -0.0390 C.ar    
  12 C12            5.8873     2.3738     0.8769 C.ar    
  13 C13            4.6692     1.7255     0.8938 C.ar    
  14 C14            3.6570    -2.0134     0.6476 C.ar    
  15 C15            4.8332    -2.7347     0.6284 C.ar    
  16 C16            5.9293    -2.2573    -0.0677 C.ar    
  17 C17            5.8536    -1.0552    -0.7482 C.ar    
  18 C18            4.6808    -0.3282    -0.7419 C.ar    
  19 C19            7.2110    -3.0496    -0.0842 C.3     
  20 N20            7.1989    -3.9767    -1.2237 N.3     
  21 C21            8.5177    -4.5939    -1.4140 C.3     
  22 C22            8.5081    -5.4376    -2.6907 C.3     
  23 C23            7.4300    -6.5186    -2.5742 C.3     
  24 C24            6.0739    -5.8515    -2.3282 C.3     
  25 C25            6.1541    -4.9958    -1.0619 C.3     
  26 C26            7.3750    -7.3149    -3.8524 C.2     
  27 N27            7.1130    -6.8277    -5.0382 N.2     
  28 N28            7.1619    -7.9012    -5.9424 N.pl3   
  29 C29            7.4608    -8.9988    -5.2106 C.2     
  30 N30            7.5906    -8.6225    -3.9548 N.2     
  31 C31            7.6192   -10.3761    -5.7291 C.ar    
  32 N32            7.4649   -10.6132    -7.0261 N.ar    
  33 C33            7.5974   -11.8239    -7.5271 C.ar    
  34 C34            7.9038   -12.8998    -6.7135 C.ar    
  35 C35            8.0737   -12.6968    -5.3513 C.ar    
  36 C36            7.9349   -11.4132    -4.8522 C.ar    
  37 C37           -1.2799    -0.7145     0.0110 C.2     
  38 C38           -2.4287    -0.0248     0.0256 C.2     
  39 N39           -2.4646     1.3449     0.0333 N.pl3   
  40 C40           -1.3143     2.0928     0.0319 C.2     
  41 C41           -3.4879     2.2457     0.0475 C.2     
  42 N42           -2.9590     3.4408     0.0487 N.2     
  43 N43           -1.6752     3.3587     0.0402 N.2     
  44 C44           -4.9597     1.9224     0.0590 C.3     
  45 N45           -5.4255     1.8096     1.4476 N.3     
  46 C46           -6.8594     1.4944     1.4979 C.3     
  47 C47           -7.3067     1.3852     2.9570 C.3     
  48 O48           -7.1772     2.6590     3.5916 O.3     
  49 H49            1.1985     3.1957     0.0074 H       
  50 H50            3.1615     3.3822    -1.6530 H       
  51 H51            5.3358     4.5327    -1.6602 H       
  52 H52            7.0774     3.8907    -0.0455 H       
  53 H53            6.6556     2.0957     1.5831 H       
  54 H54            4.4854     0.9377     1.6093 H       
  55 H55            2.8021    -2.3868     1.1920 H       
  56 H56            4.8983    -3.6736     1.1581 H       
  57 H57            6.7128    -0.6874    -1.2896 H       
  58 H58            4.6229     0.6101    -1.2735 H       
  59 H59            8.0575    -2.3694    -0.1782 H       
  60 H60            7.3006    -3.6151     0.8433 H       
  61 H61            9.2747    -3.8142    -1.4996 H       
  62 H62            8.7474    -5.2306    -0.5596 H       
  63 H63            8.2921    -4.7991    -3.5473 H       
  64 H64            9.4824    -5.9081    -2.8233 H       
  65 H65            7.6666    -7.1808    -1.7413 H       
  66 H66            5.8196    -5.2194    -3.1790 H       
  67 H67            5.3090    -6.6177    -2.2018 H       
  68 H68            6.3949    -5.6306    -0.2092 H       
  69 H69            5.1943    -4.5080    -0.8919 H       
  70 H70            7.0111    -7.8633    -6.8998 H       
  71 H71            7.4646   -11.9789    -8.5876 H       
  72 H72            8.0095   -13.8888    -7.1345 H       
  73 H73            8.3133   -13.5211    -4.6959 H       
  74 H74            8.0604   -11.2193    -3.7972 H       
  75 H75           -1.2986    -1.7944     0.0053 H       
  76 H76           -3.3615    -0.5691     0.0313 H       
  77 H77           -5.5101     2.7165    -0.4455 H       
  78 H78           -5.1283     0.9780    -0.4586 H       
  79 H79           -4.8866     1.1241     1.9553 H       
  80 H80           -7.4230     2.2856     1.0034 H       
  81 H81           -7.0412     0.5471     0.9903 H       
  82 H82           -8.3478     1.0646     2.9949 H       
  83 H83           -6.6830     0.6563     3.4746 H       
  84 H84           -7.4437     2.6643     4.5211 H       
@<TRIPOS>BOND
   1    1    2 ar
   2    1    3 ar
   3    1   40 1
   4    2   37 1
   5    2    6 ar
   6    3    4 ar
   7    3   49 1
   8    4    5 ar
   9    4    8 1
  10    5    6 ar
  11    5    7 1
  12    7   14 ar
  13    7   18 ar
  14    8    9 ar
  15    8   13 ar
  16    9   10 ar
  17    9   50 1
  18   10   11 ar
  19   10   51 1
  20   11   12 ar
  21   11   52 1
  22   12   13 ar
  23   12   53 1
  24   13   54 1
  25   14   15 ar
  26   14   55 1
  27   15   16 ar
  28   15   56 1
  29   16   17 ar
  30   16   19 1
  31   17   18 ar
  32   17   57 1
  33   18   58 1
  34   19   20 1
  35   19   59 1
  36   19   60 1
  37   20   21 1
  38   20   25 1
  39   21   22 1
  40   21   61 1
  41   21   62 1
  42   22   23 1
  43   22   63 1
  44   22   64 1
  45   23   24 1
  46   23   26 1
  47   23   65 1
  48   24   25 1
  49   24   66 1
  50   24   67 1
  51   25   68 1
  52   25   69 1
  53   26   27 2
  54   26   30 1
  55   27   28 1
  56   28   29 1
  57   28   70 1
  58   29   30 2
  59   29   31 1
  60   31   32 ar
  61   31   36 ar
  62   32   33 ar
  63   33   34 ar
  64   33   71 1
  65   34   35 ar
  66   34   72 1
  67   35   36 ar
  68   35   73 1
  69   36   74 1
  70   37   38 2
  71   37   75 1
  72   38   39 1
  73   38   76 1
  74   39   40 1
  75   39   41 1
  76   40   43 2
  77   41   42 2
  78   41   44 1
  79   42   43 1
  80   44   45 1
  81   44   77 1
  82   44   78 1
  83   45   46 1
  84   45   79 1
  85   46   47 1
  86   46   80 1
  87   46   81 1
  88   47   48 1
  89   47   82 1
  90   47   83 1
  91   48   84 1

#	End of record

