#	Name: ASD01811808
#	Creating user name:	WinNT
#	Creation time:	15. 06. 2019 19:27

#	Modifying user name:	WinNT
#	Modification time:	15. 06. 2019 19:27

#	Program:	/corina/corina34_cracker 3.40 0067  02.08.2006

@<TRIPOS>MOLECULE
ASD01811808
  56   60    0    0    0
SMALL
NO_CHARGES


@<TRIPOS>ATOM
   1 C1            -0.0167     1.3805     0.0096 C.ar    
   2 C2             0.0021    -0.0041     0.0020 C.ar    
   3 C3            -1.1845    -0.7161     0.0090 C.ar    
   4 C4            -2.3942    -0.0535     0.0241 C.ar    
   5 C5            -2.4213     1.3425     0.0323 C.ar    
   6 C6            -1.2177     2.0512     0.0304 C.ar    
   7 C7             1.2777     2.1522     0.0014 C.3     
   8 C8             1.3184    -0.7376    -0.0144 C.3     
   9 C9            -1.1549    -2.2228    -0.0004 C.3     
  10 C10           -1.0078    -2.7311     1.4107 C.ar    
  11 C11           -2.1308    -2.9918     2.1828 C.ar    
  12 C12           -1.9508    -3.4581     3.4739 C.ar    
  13 C13           -0.6597    -3.6481     3.9498 C.ar    
  14 N14            0.3867    -3.3881     3.1826 N.ar    
  15 C15            0.2467    -2.9481     1.9474 C.ar    
  16 N16           -0.4639    -4.1181     5.2520 N.pl3   
  17 C17            0.7349    -4.3497     5.8476 C.2     
  18 C18            0.4898    -4.7956     7.1011 C.2     
  19 C19           -0.8975    -4.8392     7.2804 C.2     
  20 N20           -1.4688    -4.4286     6.1775 N.2     
  21 C21           -3.5309     2.3149     0.0477 C.2     
  22 N22           -3.0504     3.5703     0.0501 N.am    
  23 C23           -1.5841     3.5142     0.0402 C.3     
  24 O24           -4.7107     2.0226     0.0563 O.2     
  25 C25           -3.8575     4.7928     0.0640 C.3     
  26 C26           -4.1248     5.2110     1.5113 C.3     
  27 O27           -2.8976     5.6000     2.1393 O.3     
  28 C28           -2.9627     6.9806     2.5305 C.3     
  29 C29           -4.4735     7.2850     2.6903 C.3     
  30 C30           -5.0697     6.4316     1.5378 C.3     
  31 H31           -3.3180    -0.6130     0.0291 H       
  32 H32            1.5800     2.3437    -1.0282 H       
  33 H33            1.1390     3.0999     0.5217 H       
  34 H34            2.0504     1.5710     0.5048 H       
  35 H35            1.6456    -0.9199     1.0092 H       
  36 H36            1.1977    -1.6891    -0.5323 H       
  37 H37            2.0641    -0.1342    -0.5322 H       
  38 H38           -2.0831    -2.6018    -0.4281 H       
  39 H39           -0.3118    -2.5659    -0.5999 H       
  40 H40           -3.1228    -2.8341     1.7858 H       
  41 H41           -2.8027    -3.6709     4.1027 H       
  42 H42            1.1240    -2.7469     1.3505 H       
  43 H43            1.7075    -4.2046     5.4011 H       
  44 H44            1.2338    -5.0698     7.8344 H       
  45 H45           -1.4092    -5.1535     8.1780 H       
  46 H46           -1.1849     3.9949     0.9333 H       
  47 H47           -1.1966     4.0028    -0.8538 H       
  48 H48           -3.3198     5.5891    -0.4508 H       
  49 H49           -4.8052     4.6083    -0.4418 H       
  50 H50           -4.5737     4.3822     2.0586 H       
  51 H51           -2.4444     7.1303     3.4776 H       
  52 H52           -2.5289     7.6140     1.7567 H       
  53 H53           -4.8418     6.9483     3.6594 H       
  54 H54           -4.6787     8.3450     2.5409 H       
  55 H55           -5.0297     6.9737     0.5930 H       
  56 H56           -6.0905     6.1270     1.7686 H       
@<TRIPOS>BOND
   1    1    2 ar
   2    1    7 1
   3    1    6 ar
   4    2    3 ar
   5    2    8 1
   6    3    4 ar
   7    3    9 1
   8    4    5 ar
   9    4   31 1
  10    5    6 ar
  11    5   21 1
  12    6   23 1
  13    7   32 1
  14    7   33 1
  15    7   34 1
  16    8   35 1
  17    8   36 1
  18    8   37 1
  19    9   10 1
  20    9   38 1
  21    9   39 1
  22   10   11 ar
  23   10   15 ar
  24   11   12 ar
  25   11   40 1
  26   12   13 ar
  27   12   41 1
  28   13   14 ar
  29   13   16 1
  30   14   15 ar
  31   15   42 1
  32   16   17 1
  33   16   20 1
  34   17   18 2
  35   17   43 1
  36   18   19 1
  37   18   44 1
  38   19   20 2
  39   19   45 1
  40   21   22 am
  41   21   24 2
  42   22   23 1
  43   22   25 1
  44   23   46 1
  45   23   47 1
  46   25   26 1
  47   25   48 1
  48   25   49 1
  49   26   27 1
  50   26   30 1
  51   26   50 1
  52   27   28 1
  53   28   29 1
  54   28   51 1
  55   28   52 1
  56   29   30 1
  57   29   53 1
  58   29   54 1
  59   30   55 1
  60   30   56 1

#	End of record

