#	Name: ASD01200050
#	Creating user name:	WinNT
#	Creation time:	15. 06. 2019 19:08

#	Modifying user name:	WinNT
#	Modification time:	15. 06. 2019 19:08

#	Program:	/corina/corina34_cracker 3.40 0067  02.08.2006

@<TRIPOS>MOLECULE
ASD01200050
  38   40    0    0    0
SMALL
NO_CHARGES


@<TRIPOS>ATOM
   1 C1             0.0563     1.2447    -0.1714 C.ar    
   2 C2            -0.1365    -0.0885     0.1779 C.ar    
   3 C3            -1.3983    -0.6444     0.1369 C.ar    
   4 C4            -2.4870     0.1244    -0.2536 C.ar    
   5 C5            -2.3000     1.4699    -0.6069 C.ar    
   6 C6            -1.0194     2.0258    -0.5578 C.ar    
   7 C7            -3.4496     2.2932    -1.0230 C.2     
   8 N8            -3.2933     3.6169    -1.2228 N.am    
   9 C9            -4.3767     4.3927    -1.6150 C.2     
  10 N10           -4.3350     5.6699    -1.8333 N.2     
  11 C11           -5.4622     6.2503    -2.2008 C.2     
  12 C12           -6.5057     5.4243    -2.2975 C.2     
  13 S13           -5.9575     3.8011    -1.8870 S.3     
  14 O14           -4.5392     1.7781    -1.1860 O.2     
  15 C15           -5.5626     7.7264    -2.4871 C.3     
  16 S16            1.6732     1.9427    -0.1148 S.3     
  17 N17           -3.7590    -0.4375    -0.2950 N.pl3   
  18 C18            2.2622     1.4802    -1.7097 C.2     
  19 N19            1.5701     0.8521    -2.6315 N.2     
  20 C20            2.3404     0.6673    -3.7163 C.2     
  21 C21            3.5520     1.1944    -3.4697 C.2     
  22 N22            3.5104     1.7187    -2.1978 N.pl3   
  23 C23            4.6047     2.3967    -1.4984 C.3     
  24 H24            0.7064    -0.6913     0.4824 H       
  25 H25           -1.5398    -1.6800     0.4088 H       
  26 H26           -0.8677     3.0605    -0.8278 H       
  27 H27           -2.4243     4.0277    -1.0928 H       
  28 H28           -7.5100     5.7016    -2.5818 H       
  29 H29           -5.3562     7.9068    -3.5421 H       
  30 H30           -6.5674     8.0752    -2.2487 H       
  31 H31           -4.8368     8.2649    -1.8777 H       
  32 H32           -3.8623    -1.3983    -0.3794 H       
  33 H33           -4.5427     0.1315    -0.2394 H       
  34 H34            2.0379     0.1783    -4.6306 H       
  35 H35            4.3963     1.2078    -4.1431 H       
  36 H36            4.5621     3.4657    -1.7069 H       
  37 H37            4.5075     2.2317    -0.4254 H       
  38 H38            5.5586     1.9971    -1.8426 H       
@<TRIPOS>BOND
   1    1    2 ar
   2    1   16 1
   3    1    6 ar
   4    2    3 ar
   5    2   24 1
   6    3    4 ar
   7    3   25 1
   8    4    5 ar
   9    4   17 1
  10    5    6 ar
  11    5    7 1
  12    6   26 1
  13    7    8 am
  14    7   14 2
  15    8    9 1
  16    8   27 1
  17    9   10 2
  18    9   13 1
  19   10   11 1
  20   11   12 2
  21   11   15 1
  22   12   13 1
  23   12   28 1
  24   15   29 1
  25   15   30 1
  26   15   31 1
  27   16   18 1
  28   17   32 1
  29   17   33 1
  30   18   19 2
  31   18   22 1
  32   19   20 1
  33   20   21 2
  34   20   34 1
  35   21   22 1
  36   21   35 1
  37   22   23 1
  38   23   36 1
  39   23   37 1
  40   23   38 1

#	End of record

