#	Name: ASD02039016
#	Creating user name:	WinNT
#	Creation time:	15. 06. 2019 20:17

#	Modifying user name:	WinNT
#	Modification time:	15. 06. 2019 20:17

#	Program:	/corina/corina34_cracker 3.40 0067  02.08.2006

@<TRIPOS>MOLECULE
ASD02039016
  45   49    0    0    0
SMALL
NO_CHARGES


@<TRIPOS>ATOM
   1 N1             0.0235     1.2846    -0.3612 N.2     
   2 N2             0.0399    -0.0018    -0.3625 N.2     
   3 C3             1.2244     1.7332    -0.0877 C.2     
   4 O4             2.0204     0.6620     0.0882 O.3     
   5 C5             1.2410    -0.4221    -0.0924 C.2     
   6 N6             1.6034     3.0605     0.0028 N.pl3   
   7 C7             0.6393     4.0714    -0.0882 C.ar    
   8 C8             1.6809    -1.8604     0.0016 C.3     
   9 O9             2.1173    -2.3099    -1.2828 O.3     
  10 C10            2.5501    -3.5957    -1.3725 C.ar    
  11 C11            2.9849    -4.0910    -2.5856 C.ar    
  12 C12            2.5578    -4.4048    -0.2391 C.ar    
  13 C13            2.9929    -5.7099    -0.3112 C.ar    
  14 C14            3.4298    -6.2305    -1.5245 C.ar    
  15 C15            3.4289    -5.4144    -2.6715 C.ar    
  16 C16           -0.6620     3.8297     0.3294 C.ar    
  17 C17            0.9857     5.3187    -0.5911 C.ar    
  18 C18            0.0350     6.3170    -0.6793 C.ar    
  19 C19           -1.2674     6.0777    -0.2665 C.ar    
  20 C20           -1.6165     4.8312     0.2397 C.ar    
  21 N21            3.8690    -7.5357    -1.6175 N.am    
  22 C22            4.2915    -8.0414    -2.7893 C.2     
  23 C23            4.3054    -7.2664    -3.9686 C.2     
  24 O24            4.6725    -9.1984    -2.8343 O.2     
  25 C25            3.8911    -5.9755    -3.9425 C.2     
  26 O26           -2.1891     7.0769    -0.3537 O.3     
  27 C27           -3.5658     6.6908    -0.2812 C.3     
  28 C28           -3.7289     5.7086     0.8866 C.3     
  29 O29           -2.8912     4.5753     0.6429 O.3     
  30 H30            2.5371     3.2907     0.1293 H       
  31 H31            2.5018    -1.9435     0.7138 H       
  32 H32            0.8453    -2.4747     0.3369 H       
  33 H33            2.9820    -3.4607    -3.4626 H       
  34 H34            2.2199    -4.0052     0.7056 H       
  35 H35            2.9950    -6.3284     0.5742 H       
  36 H36           -0.9312     2.8611     0.7240 H       
  37 H37            1.9990     5.5084    -0.9131 H       
  38 H38            0.3066     7.2864    -1.0704 H       
  39 H39            3.8732    -8.0961    -0.8258 H       
  40 H40            4.6514    -7.7017    -4.8945 H       
  41 H41            3.8981    -5.3755    -4.8404 H       
  42 H42           -4.1858     7.5709    -0.1105 H       
  43 H43           -3.8615     6.2072    -1.2122 H       
  44 H44           -3.4274     6.1902     1.8168 H       
  45 H45           -4.7690     5.3905     0.9569 H       
@<TRIPOS>BOND
   1    1    2 1
   2    1    3 2
   3    2    5 2
   4    3    4 1
   5    3    6 1
   6    4    5 1
   7    5    8 1
   8    6    7 1
   9    6   30 1
  10    7   16 ar
  11    7   17 ar
  12    8    9 1
  13    8   31 1
  14    8   32 1
  15    9   10 1
  16   10   11 ar
  17   10   12 ar
  18   11   15 ar
  19   11   33 1
  20   12   13 ar
  21   12   34 1
  22   13   14 ar
  23   13   35 1
  24   14   15 ar
  25   14   21 1
  26   15   25 1
  27   16   20 ar
  28   16   36 1
  29   17   18 ar
  30   17   37 1
  31   18   19 ar
  32   18   38 1
  33   19   20 ar
  34   19   26 1
  35   20   29 1
  36   21   22 am
  37   21   39 1
  38   22   23 1
  39   22   24 2
  40   23   25 2
  41   23   40 1
  42   25   41 1
  43   26   27 1
  44   27   28 1
  45   27   42 1
  46   27   43 1
  47   28   29 1
  48   28   44 1
  49   28   45 1

#	End of record

