#	Name: ASD06600023
#	Creating user name:	WinNT
#	Creation time:	15. 06. 2019 21:07

#	Modifying user name:	WinNT
#	Modification time:	15. 06. 2019 21:07

#	Program:	/corina/corina34_cracker 3.40 0067  02.08.2006

@<TRIPOS>MOLECULE
ASD06600023
 330  333    0    0    0
SMALL
NO_CHARGES


@<TRIPOS>ATOM
   1 C1            -8.4438   -14.5695     3.8407 C.2     
   2 O2            -9.0971   -15.5868     3.7444 O.2     
   3 N3            -6.5779   -16.0488     4.3089 N.am    
   4 C4            -6.9733   -14.6459     4.1616 C.3     
   5 C5            -6.1699   -14.0059     3.0277 C.3     
   6 C6            -6.4463   -14.7535     1.7217 C.3     
   7 C7            -5.7422   -14.0392     0.5663 C.3     
   8 C8            -4.6770   -14.0834     3.3535 C.3     
   9 C9           -10.7443   -12.0144     2.5990 C.2     
  10 O10           -9.8949   -11.1511     2.5336 O.2     
  11 N11           -9.0316   -13.3710     3.6551 N.am    
  12 C12          -10.4598   -13.2970     3.3371 C.3     
  13 C13          -11.2731   -13.3311     4.6326 C.3     
  14 C14          -11.0794   -14.6837     5.3210 C.3     
  15 C15          -10.7981   -12.2129     5.5626 C.3     
  16 C16          -13.7489   -10.3451     1.3545 C.2     
  17 O17          -14.4805   -11.1933     1.8196 O.2     
  18 N18          -11.9426   -11.8266     2.0114 N.am    
  19 C19          -12.2551   -10.5426     1.3789 C.3     
  20 C20          -11.7161   -10.5349    -0.0530 C.3     
  21 C21          -10.2113   -10.6091    -0.0237 C.2     
  22 C22           -9.4517   -11.5251    -0.6542 C.2     
  23 N23           -8.1479   -11.2264    -0.3633 N.pl3   
  24 C24           -8.1562   -10.1375     0.4354 C.2     
  25 N25           -9.3934    -9.7709     0.6302 N.2     
  26 C26          -16.0891    -8.1009    -0.3339 C.2     
  27 O27          -15.2216    -7.6418    -1.0463 O.2     
  28 N28          -14.2719    -9.2258     0.8158 N.am    
  29 C29          -15.7241    -9.0338     0.7920 C.3     
  30 C30          -16.1806    -8.4310     2.1220 C.3     
  31 C31          -19.0435    -6.1928    -1.3305 C.2     
  32 O32          -19.6758    -6.5199    -0.3486 O.2     
  33 N33          -17.3795    -7.7770    -0.5492 N.am    
  34 C34          -17.7343    -6.8701    -1.6437 C.3     
  35 C35          -17.8704    -7.6672    -2.9426 C.3     
  36 C36          -16.5174    -8.2808    -3.3085 C.3     
  37 C37          -18.9009    -8.7818    -2.7514 C.3     
  38 C38          -21.3819    -4.0773    -3.1797 C.2     
  39 O39          -20.7385    -4.1654    -4.2040 O.2     
  40 N40          -19.5118    -5.2236    -2.1415 N.am    
  41 C41          -20.8294    -4.6333    -1.8927 C.3     
  42 C42          -20.6980    -3.5071    -0.8654 C.3     
  43 C43          -20.2625    -4.0823     0.4577 C.2     
  44 C44          -19.1863    -3.6998     1.1711 C.2     
  45 N45          -19.1628    -4.4751     2.2989 N.pl3   
  46 C46          -20.2262    -5.3050     2.2354 C.2     
  47 N47          -20.8821    -5.0610     1.1339 N.2     
  48 C48          -24.1148    -1.8452    -4.1348 C.2     
  49 O49          -24.3464    -1.5448    -2.9828 O.2     
  50 N50          -22.5911    -3.4822    -3.1926 N.am    
  51 C51          -23.1282    -2.9417    -4.4438 C.3     
  52 C52          -23.8315    -4.0565    -5.2206 C.3     
  53 C53          -26.6743     0.0018    -5.9789 C.2     
  54 O54          -26.5779    -0.7217    -6.9475 O.2     
  55 N55          -24.7397    -1.1984    -5.1385 N.am    
  56 C56          -25.6987    -0.1324    -4.8381 C.3     
  57 C57          -24.9504     1.1886    -4.6490 C.3     
  58 C58          -24.0649     1.0947    -3.4332 C.ar    
  59 C59          -22.7644     0.6425    -3.5598 C.ar    
  60 C60          -21.9509     0.5550    -2.4467 C.ar    
  61 C61          -22.4396     0.9218    -1.2012 C.ar    
  62 O62          -21.6411     0.8371    -0.1048 O.3     
  63 C63          -23.7447     1.3757    -1.0769 C.ar    
  64 C64          -24.5526     1.4662    -2.1939 C.ar    
  65 C65          -29.1643     2.4543    -7.0501 C.2     
  66 O66          -28.8079     3.2622    -6.2188 O.2     
  67 N67          -27.6538     0.9258    -5.9228 N.am    
  68 C68          -28.6022     1.0562    -7.0317 C.3     
  69 C69          -29.7411     0.0509    -6.8498 C.3     
  70 C70          -29.1876    -1.3715    -6.9557 C.3     
  71 C71          -30.3265    -2.3768    -6.7737 C.3     
  72 N72          -29.7965    -3.7388    -6.8752 N.pl3   
  73 C73          -30.6402    -4.8163    -6.7434 C.2     
  74 N74          -30.1687    -6.0281    -6.8337 N.2     
  75 N75          -31.9813    -4.6156    -6.5165 N.pl3   
  76 C76          -31.9580     4.1565    -8.6815 C.2     
  77 O77          -32.4171     3.1168    -9.1046 O.2     
  78 N78          -30.0632     2.8069    -7.9905 N.am    
  79 C79          -30.6097     4.1660    -8.0084 C.3     
  80 C80          -29.6615     5.0869    -8.7789 C.3     
  81 C81          -28.3529     5.1931    -8.0391 C.2     
  82 C82          -27.1334     4.9302    -8.5463 C.2     
  83 N83          -26.2302     5.1536    -7.5423 N.pl3   
  84 C84          -26.9297     5.5454    -6.4557 C.2     
  85 N85          -28.1981     5.5716    -6.7616 N.2     
  86 C86          -34.2518     6.6601   -10.0355 C.2     
  87 O87          -33.4418     7.5534    -9.9063 O.2     
  88 N88          -32.6535     5.3034    -8.8133 N.am    
  89 C89          -33.9642     5.2941    -9.4677 C.3     
  90 C90          -35.0422     4.9296    -8.4450 C.3     
  91 C91          -34.8215     3.4951    -7.9606 C.3     
  92 C92          -35.8995     3.1306    -6.9380 C.3     
  93 N93          -35.6882     1.7571    -6.4742 N.pl3   
  94 C94          -36.5396     1.2064    -5.5457 C.2     
  95 N95          -36.3515    -0.0156    -5.1331 N.2     
  96 N96          -37.5893     1.9446    -5.0525 N.pl3   
  97 C97          -37.1792     8.4113   -11.3494 C.2     
  98 O98          -37.9335     7.5277   -11.0014 O.2     
  99 N99          -35.4093     6.8890   -10.6869 N.am    
 100 C100         -35.6889     8.2169   -11.2389 C.3     
 101 C101         -35.0547     8.3365   -12.6261 C.3     
 102 C102         -33.5318     8.2636   -12.4986 C.3     
 103 C103         -32.8975     8.3832   -13.8858 C.3     
 104 N104         -31.4393     8.3134   -13.7638 N.pl3   
 105 C105         -30.6506     8.3994   -14.8866 C.2     
 106 N106         -31.2003     8.5430   -16.0597 N.2     
 107 N107         -29.2821     8.3339   -14.7720 N.pl3   
 108 C108         -39.4185    10.7719   -13.0158 C.2     
 109 O109         -38.5087    11.2871   -13.6305 O.2     
 110 N110         -37.6738     9.5672   -11.8351 N.am    
 111 C111         -39.1226     9.7562   -11.9425 C.3     
 112 C112         -39.6727    10.2534   -10.6043 C.3     
 113 C113         -39.4837     9.1698    -9.5409 C.3     
 114 C114         -39.9188     9.7115    -8.1777 C.3     
 115 C115         -40.3339     7.9494    -9.8996 C.3     
 116 C116         -42.3502    12.7375   -13.9925 C.2     
 117 O117         -43.1183    12.1472   -13.2629 O.2     
 118 N118         -40.6940    11.1076   -13.2927 N.am    
 119 C119         -40.9782    12.1730   -14.2573 C.3     
 120 C120         -40.9261    11.6034   -15.6763 C.3     
 121 C121         -41.1890    12.7232   -16.6853 C.3     
 122 C122         -40.0169    13.7064   -16.6728 C.3     
 123 C123         -41.3371    12.1239   -18.0852 C.3     
 124 C124         -44.4555    15.3091   -15.5149 C.2     
 125 O125         -43.6680    15.4985   -16.4176 O.2     
 126 N126         -42.7236    13.8983   -14.5667 N.am    
 127 C127         -44.0798    14.4134   -14.3627 C.3     
 128 C128         -44.1313    15.2116   -13.0584 C.3     
 129 O129         -43.3009    16.3687   -13.1749 O.3     
 130 C130         -45.5186    18.1635   -16.4038 C.2     
 131 O131         -44.9102    18.4043   -15.3882 O.2     
 132 N132         -45.6667    15.8997   -15.5423 N.am    
 133 C133         -46.0319    16.7704   -16.6624 C.3     
 134 C134         -47.5549    16.8062   -16.8049 C.3     
 135 C135         -47.9318    17.6138   -18.0486 C.3     
 136 C136         -49.4454    17.5457   -18.2614 C.3     
 137 C137         -48.1677    17.4621   -15.5659 C.3     
 138 O138         -45.7375    19.1368   -17.3019 O.3     
 139 C139          -5.5062   -16.3716     5.0597 C.2     
 140 O140          -4.8691   -15.5007     5.6134 O.2     
 141 C141           6.4530   -28.6994    12.5559 C.3     
 142 C142           6.0400   -27.2343    12.4021 C.3     
 143 C143           4.8026   -27.1445    11.5066 C.3     
 144 C144           4.3896   -25.6793    11.3528 C.3     
 145 C145           3.1523   -25.5895    10.4574 C.3     
 146 C146           2.7393   -24.1244    10.3036 C.3     
 147 C147           1.5020   -24.0346     9.4081 C.3     
 148 C148           1.0890   -22.5694     9.2544 C.3     
 149 C149          -0.1484   -22.4796     8.3589 C.3     
 150 C150          -0.5614   -21.0145     8.2051 C.3     
 151 C151          -1.7987   -20.9247     7.3096 C.3     
 152 C152          -2.2117   -19.4595     7.1559 C.3     
 153 C153          -3.4490   -19.3697     6.2604 C.3     
 154 C154          -3.8620   -17.9045     6.1066 C.3     
 155 C155          -5.0994   -17.8147     5.2112 C.3     
 156 H156          -7.0873   -16.7454     3.8660 H       
 157 H157          -6.7764   -14.1133     5.0920 H       
 158 H158          -6.4641   -12.9621     2.9181 H       
 159 H159          -6.0712   -15.7738     1.8007 H       
 160 H160          -7.5201   -14.7746     1.5354 H       
 161 H161          -5.9392   -14.5718    -0.3641 H       
 162 H162          -6.1174   -13.0188     0.4873 H       
 163 H163          -4.6685   -14.0181     0.7526 H       
 164 H164          -4.3828   -15.1272     3.4631 H       
 165 H165          -4.1046   -13.6275     2.5457 H       
 166 H166          -4.4800   -13.5508     4.2840 H       
 167 H167          -8.5091   -12.5574     3.7321 H       
 168 H168         -10.7372   -14.1454     2.7116 H       
 169 H169         -12.3290   -13.1884     4.4026 H       
 170 H170         -10.0470   -14.7752     5.6583 H       
 171 H171         -11.7493   -14.7545     6.1779 H       
 172 H172         -11.3040   -15.4851     4.6171 H       
 173 H173         -10.9361   -11.2493     5.0722 H       
 174 H174         -11.3775   -12.2372     6.4855 H       
 175 H175          -9.7422   -12.3556     5.7926 H       
 176 H176         -12.5981   -12.5415     2.0073 H       
 177 H177         -11.7911    -9.7357     1.9461 H       
 178 H178         -12.1118   -11.3940    -0.5948 H       
 179 H179         -12.0250    -9.6166    -0.5525 H       
 180 H180          -9.8036   -12.3391    -1.2706 H       
 181 H181          -7.3644   -11.7071    -0.6730 H       
 182 H182          -7.2833    -9.6486     0.8423 H       
 183 H183         -13.6868    -8.5474     0.4438 H       
 184 H184         -16.2153    -9.9951     0.6411 H       
 185 H185         -15.6894    -7.4697     2.2729 H       
 186 H186         -17.2611    -8.2881     2.1044 H       
 187 H187         -15.9167    -9.1057     2.9364 H       
 188 H188         -18.0733    -8.1442     0.0206 H       
 189 H189         -16.9544    -6.1175    -1.7593 H       
 190 H190         -18.1970    -7.0038    -3.7434 H       
 191 H191         -16.1908    -8.9442    -2.5077 H       
 192 H192         -16.6144    -8.8486    -4.2338 H       
 193 H193         -15.7832    -7.4868    -3.4447 H       
 194 H194         -18.6211    -9.3919    -1.8926 H       
 195 H195         -19.8837    -8.3425    -2.5803 H       
 196 H196         -18.9321    -9.4049    -3.6451 H       
 197 H197         -18.9765    -4.9168    -2.8899 H       
 198 H198         -21.5037    -5.3987    -1.5084 H       
 199 H199         -19.9567    -2.7860    -1.2097 H       
 200 H200         -21.6606    -3.0099    -0.7462 H       
 201 H201         -18.4777    -2.9296     0.9045 H       
 202 H202         -18.5051    -4.4358     3.0109 H       
 203 H203         -20.4921    -6.0453     2.9755 H       
 204 H204         -23.1057    -3.4118    -2.3734 H       
 205 H205         -22.3132    -2.5384    -5.0448 H       
 206 H206         -24.2312    -3.6543    -6.1515 H       
 207 H207         -23.1180    -4.8495    -5.4441 H       
 208 H208         -24.6465    -4.4598    -4.6196 H       
 209 H209         -24.5544    -1.4386    -6.0599 H       
 210 H210         -26.2399    -0.3775    -3.9242 H       
 211 H211         -24.3392     1.3891    -5.5290 H       
 212 H212         -25.6688     1.9970    -4.5136 H       
 213 H213         -22.3844     0.3570    -4.5296 H       
 214 H214         -20.9353     0.2011    -2.5460 H       
 215 H215         -21.1352     1.6411     0.0763 H       
 216 H216         -24.1275     1.6614    -0.1084 H       
 217 H217         -25.5672     1.8236    -2.0983 H       
 218 H218         -27.7309     1.5044    -5.1481 H       
 219 H219         -28.0897     0.8582    -7.9732 H       
 220 H220         -30.1966     0.1915    -5.8696 H       
 221 H221         -30.4913     0.2076    -7.6249 H       
 222 H222         -28.7321    -1.5121    -7.9359 H       
 223 H223         -28.4374    -1.5281    -6.1806 H       
 224 H224         -30.7821    -2.2363    -5.7935 H       
 225 H225         -31.0767    -2.2202    -7.5489 H       
 226 H226         -28.8504    -3.8804    -7.0353 H       
 227 H227         -30.7639    -6.7883    -6.7407 H       
 228 H228         -32.3322    -3.7138    -6.4493 H       
 229 H229         -32.5765    -5.3759    -6.4235 H       
 230 H230         -30.3482     2.1608    -8.6554 H       
 231 H231         -30.7167     4.5281    -6.9858 H       
 232 H232         -29.4845     4.6765    -9.7731 H       
 233 H233         -30.1094     6.0766    -8.8688 H       
 234 H234         -26.9108     4.6052    -9.5520 H       
 235 H235         -25.2676     5.0498    -7.6005 H       
 236 H236         -26.5089     5.7992    -5.4940 H       
 237 H237         -32.2862     6.1349    -8.4749 H       
 238 H238         -33.9633     4.5589   -10.2724 H       
 239 H239         -34.9845     5.6122    -7.5972 H       
 240 H240         -36.0252     5.0091    -8.9093 H       
 241 H241         -34.8792     2.8124    -8.8084 H       
 242 H242         -33.8385     3.4156    -7.4964 H       
 243 H243         -35.8418     3.8133    -6.0902 H       
 244 H244         -36.8825     3.2101    -7.4023 H       
 245 H245         -34.9476     1.2362    -6.8222 H       
 246 H246         -36.9522    -0.4042    -4.4780 H       
 247 H247         -37.7292     2.8540    -5.3596 H       
 248 H248         -38.1899     1.5561    -4.3975 H       
 249 H249         -36.0572     6.1746   -10.7902 H       
 250 H250         -35.2709     8.9791   -10.5813 H       
 251 H251         -35.4059     7.5205   -13.2577 H       
 252 H252         -35.3367     9.2895   -13.0736 H       
 253 H253         -33.1806     9.0796   -11.8670 H       
 254 H254         -33.2498     7.3105   -12.0511 H       
 255 H255         -33.2487     7.5672   -14.5174 H       
 256 H256         -33.1795     9.3362   -14.3333 H       
 257 H257         -31.0303     8.2065   -12.8907 H       
 258 H258         -30.6438     8.6037   -16.8519 H       
 259 H259         -28.8731     8.2271   -13.8990 H       
 260 H260         -28.7257     8.3946   -15.5642 H       
 261 H261         -37.0706    10.2739   -12.1134 H       
 262 H262         -39.5947     8.8079   -12.1996 H       
 263 H263         -39.1380    11.1545   -10.3039 H       
 264 H264         -40.7341    10.4787   -10.7088 H       
 265 H265         -38.4334     8.8813    -9.4988 H       
 266 H266         -40.9690    10.0000    -8.2198 H       
 267 H267         -39.7841     8.9395    -7.4201 H       
 268 H268         -39.3131    10.5809    -7.9221 H       
 269 H269         -40.0239     7.5634   -10.8707 H       
 270 H270         -40.1992     7.1773    -9.1420 H       
 271 H271         -41.3841     8.2379    -9.9417 H       
 272 H272         -41.4239    10.6439   -12.8533 H       
 273 H273         -40.2343    12.9632   -14.1554 H       
 274 H274         -39.9415    11.1733   -15.8593 H       
 275 H275         -41.6865    10.8301   -15.7855 H       
 276 H276         -42.1059    13.2474   -16.4156 H       
 277 H277         -39.1127    13.1982   -17.0078 H       
 278 H278         -40.2343    14.5395   -17.3413 H       
 279 H279         -39.8686    14.0822   -15.6604 H       
 280 H280         -42.1721    11.4234   -18.0941 H       
 281 H281         -41.5244    12.9216   -18.8040 H       
 282 H282         -40.4202    11.5997   -18.3549 H       
 283 H283         -42.0943    14.3926   -15.1149 H       
 284 H284         -44.7803    13.5802   -14.3067 H       
 285 H285         -45.1581    15.5196   -12.8613 H       
 286 H286         -43.7746    14.5896   -12.2374 H       
 287 H287         -43.2855    16.9231   -12.3828 H       
 288 H288         -46.2965    15.7482   -14.8203 H       
 289 H289         -45.5900    16.3850   -17.5812 H       
 290 H290         -47.9346    15.7893   -16.9031 H       
 291 H291         -47.6304    18.6524   -17.9125 H       
 292 H292         -47.4235    17.1990   -18.9190 H       
 293 H293         -49.7468    16.5071   -18.3975 H       
 294 H294         -49.9537    17.9605   -17.3910 H       
 295 H295         -49.7140    18.1210   -19.1474 H       
 296 H296         -49.2527    17.4876   -15.6674 H       
 297 H297         -47.8992    16.8868   -14.6799 H       
 298 H298         -47.7880    18.4790   -15.4676 H       
 299 H299         -45.3891    20.0141   -17.0922 H       
 300 H300           5.6358   -29.2617    13.0078 H       
 301 H301           6.6828   -29.1169    11.5756 H       
 302 H302           7.3345   -28.7634    13.1938 H       
 303 H303           5.8101   -26.8168    13.3824 H       
 304 H304           6.8571   -26.6720    11.9502 H       
 305 H305           5.0325   -27.5620    10.5264 H       
 306 H306           3.9855   -27.7068    11.9585 H       
 307 H307           4.1598   -25.2618    12.3331 H       
 308 H308           5.2068   -25.1170    10.9010 H       
 309 H309           3.3822   -26.0070     9.4771 H       
 310 H310           2.3352   -26.1518    10.9093 H       
 311 H311           2.5094   -23.7068    11.2839 H       
 312 H312           3.5564   -23.5620     9.8517 H       
 313 H313           1.7318   -24.4521     8.4279 H       
 314 H314           0.6848   -24.5969     9.8600 H       
 315 H315           0.8591   -22.1519    10.2346 H       
 316 H316           1.9061   -22.0071     8.8025 H       
 317 H317           0.0815   -22.8971     7.3786 H       
 318 H318          -0.9655   -23.0419     8.8108 H       
 319 H319          -0.7912   -20.5969     9.1854 H       
 320 H320           0.2558   -20.4521     7.7532 H       
 321 H321          -1.5688   -21.3422     6.3294 H       
 322 H322          -2.6158   -21.4870     7.7615 H       
 323 H323          -2.4416   -19.0420     8.1361 H       
 324 H324          -1.3946   -18.8972     6.7040 H       
 325 H325          -3.2192   -19.7872     5.2801 H       
 326 H326          -4.2661   -19.9320     6.7123 H       
 327 H327          -4.0919   -17.4870     7.0869 H       
 328 H328          -3.0449   -17.3422     5.6547 H       
 329 H329          -5.9165   -18.3771     5.6630 H       
 330 H330          -4.8695   -18.2323     4.2309 H       
@<TRIPOS>BOND
   1    1    2 2
   2    1    4 1
   3    1   11 am
   4    3  139 am
   5    3    4 1
   6    3  156 1
   7    4    5 1
   8    4  157 1
   9    5    6 1
  10    5    8 1
  11    5  158 1
  12    6    7 1
  13    6  159 1
  14    6  160 1
  15    7  161 1
  16    7  162 1
  17    7  163 1
  18    8  164 1
  19    8  165 1
  20    8  166 1
  21    9   10 2
  22    9   12 1
  23    9   18 am
  24   11   12 1
  25   11  167 1
  26   12   13 1
  27   12  168 1
  28   13   14 1
  29   13   15 1
  30   13  169 1
  31   14  170 1
  32   14  171 1
  33   14  172 1
  34   15  173 1
  35   15  174 1
  36   15  175 1
  37   16   17 2
  38   16   19 1
  39   16   28 am
  40   18   19 1
  41   18  176 1
  42   19   20 1
  43   19  177 1
  44   20   21 1
  45   20  178 1
  46   20  179 1
  47   21   22 2
  48   21   25 1
  49   22   23 1
  50   22  180 1
  51   23   24 1
  52   23  181 1
  53   24   25 2
  54   24  182 1
  55   26   27 2
  56   26   29 1
  57   26   33 am
  58   28   29 1
  59   28  183 1
  60   29   30 1
  61   29  184 1
  62   30  185 1
  63   30  186 1
  64   30  187 1
  65   31   32 2
  66   31   34 1
  67   31   40 am
  68   33   34 1
  69   33  188 1
  70   34   35 1
  71   34  189 1
  72   35   36 1
  73   35   37 1
  74   35  190 1
  75   36  191 1
  76   36  192 1
  77   36  193 1
  78   37  194 1
  79   37  195 1
  80   37  196 1
  81   38   39 2
  82   38   41 1
  83   38   50 am
  84   40   41 1
  85   40  197 1
  86   41   42 1
  87   41  198 1
  88   42   43 1
  89   42  199 1
  90   42  200 1
  91   43   44 2
  92   43   47 1
  93   44   45 1
  94   44  201 1
  95   45   46 1
  96   45  202 1
  97   46   47 2
  98   46  203 1
  99   48   49 2
 100   48   51 1
 101   48   55 am
 102   50   51 1
 103   50  204 1
 104   51   52 1
 105   51  205 1
 106   52  206 1
 107   52  207 1
 108   52  208 1
 109   53   54 2
 110   53   56 1
 111   53   67 am
 112   55   56 1
 113   55  209 1
 114   56   57 1
 115   56  210 1
 116   57   58 1
 117   57  211 1
 118   57  212 1
 119   58   59 ar
 120   58   64 ar
 121   59   60 ar
 122   59  213 1
 123   60   61 ar
 124   60  214 1
 125   61   62 1
 126   61   63 ar
 127   62  215 1
 128   63   64 ar
 129   63  216 1
 130   64  217 1
 131   65   66 2
 132   65   68 1
 133   65   78 am
 134   67   68 1
 135   67  218 1
 136   68   69 1
 137   68  219 1
 138   69   70 1
 139   69  220 1
 140   69  221 1
 141   70   71 1
 142   70  222 1
 143   70  223 1
 144   71   72 1
 145   71  224 1
 146   71  225 1
 147   72   73 1
 148   72  226 1
 149   73   74 2
 150   73   75 1
 151   74  227 1
 152   75  228 1
 153   75  229 1
 154   76   77 2
 155   76   79 1
 156   76   88 am
 157   78   79 1
 158   78  230 1
 159   79   80 1
 160   79  231 1
 161   80   81 1
 162   80  232 1
 163   80  233 1
 164   81   82 2
 165   81   85 1
 166   82   83 1
 167   82  234 1
 168   83   84 1
 169   83  235 1
 170   84   85 2
 171   84  236 1
 172   86   87 2
 173   86   89 1
 174   86   99 am
 175   88   89 1
 176   88  237 1
 177   89   90 1
 178   89  238 1
 179   90   91 1
 180   90  239 1
 181   90  240 1
 182   91   92 1
 183   91  241 1
 184   91  242 1
 185   92   93 1
 186   92  243 1
 187   92  244 1
 188   93   94 1
 189   93  245 1
 190   94   95 2
 191   94   96 1
 192   95  246 1
 193   96  247 1
 194   96  248 1
 195   97   98 2
 196   97  100 1
 197   97  110 am
 198   99  100 1
 199   99  249 1
 200  100  101 1
 201  100  250 1
 202  101  102 1
 203  101  251 1
 204  101  252 1
 205  102  103 1
 206  102  253 1
 207  102  254 1
 208  103  104 1
 209  103  255 1
 210  103  256 1
 211  104  105 1
 212  104  257 1
 213  105  106 2
 214  105  107 1
 215  106  258 1
 216  107  259 1
 217  107  260 1
 218  108  109 2
 219  108  111 1
 220  108  118 am
 221  110  111 1
 222  110  261 1
 223  111  112 1
 224  111  262 1
 225  112  113 1
 226  112  263 1
 227  112  264 1
 228  113  114 1
 229  113  115 1
 230  113  265 1
 231  114  266 1
 232  114  267 1
 233  114  268 1
 234  115  269 1
 235  115  270 1
 236  115  271 1
 237  116  117 2
 238  116  119 1
 239  116  126 am
 240  118  119 1
 241  118  272 1
 242  119  120 1
 243  119  273 1
 244  120  121 1
 245  120  274 1
 246  120  275 1
 247  121  122 1
 248  121  123 1
 249  121  276 1
 250  122  277 1
 251  122  278 1
 252  122  279 1
 253  123  280 1
 254  123  281 1
 255  123  282 1
 256  124  125 2
 257  124  127 1
 258  124  132 am
 259  126  127 1
 260  126  283 1
 261  127  128 1
 262  127  284 1
 263  128  129 1
 264  128  285 1
 265  128  286 1
 266  129  287 1
 267  130  131 2
 268  130  133 1
 269  130  138 1
 270  132  133 1
 271  132  288 1
 272  133  134 1
 273  133  289 1
 274  134  135 1
 275  134  137 1
 276  134  290 1
 277  135  136 1
 278  135  291 1
 279  135  292 1
 280  136  293 1
 281  136  294 1
 282  136  295 1
 283  137  296 1
 284  137  297 1
 285  137  298 1
 286  138  299 1
 287  139  140 2
 288  139  155 1
 289  141  142 1
 290  141  300 1
 291  141  301 1
 292  141  302 1
 293  142  143 1
 294  142  303 1
 295  142  304 1
 296  143  144 1
 297  143  305 1
 298  143  306 1
 299  144  145 1
 300  144  307 1
 301  144  308 1
 302  145  146 1
 303  145  309 1
 304  145  310 1
 305  146  147 1
 306  146  311 1
 307  146  312 1
 308  147  148 1
 309  147  313 1
 310  147  314 1
 311  148  149 1
 312  148  315 1
 313  148  316 1
 314  149  150 1
 315  149  317 1
 316  149  318 1
 317  150  151 1
 318  150  319 1
 319  150  320 1
 320  151  152 1
 321  151  321 1
 322  151  322 1
 323  152  153 1
 324  152  323 1
 325  152  324 1
 326  153  154 1
 327  153  325 1
 328  153  326 1
 329  154  155 1
 330  154  327 1
 331  154  328 1
 332  155  329 1
 333  155  330 1

#	End of record

