#	Name: ASD09080136
#	Creating user name:	WinNT
#	Creation time:	15. 06. 2019 21:20

#	Modifying user name:	WinNT
#	Modification time:	15. 06. 2019 21:20

#	Program:	/corina/corina34_cracker 3.40 0067  02.08.2006

@<TRIPOS>MOLECULE
ASD09080136
  62   65    0    0    0
SMALL
NO_CHARGES


@<TRIPOS>ATOM
   1 C1            -0.0167     1.3799     0.0096 C.ar    
   2 C2             0.0021    -0.0041     0.0020 C.ar    
   3 C3            -1.1844    -0.7169     0.0091 C.ar    
   4 C4            -2.3938    -0.0494     0.0242 C.ar    
   5 C5            -2.4179     1.3436     0.0324 C.ar    
   6 C6            -1.2209     2.0565     0.0305 C.ar    
   7 Cl7            1.4756     2.2669     0.0001 Cl      
   8 Cl8           -1.1526    -2.4526    -0.0017 Cl      
   9 C9            -3.7143     2.0655     0.0481 C.ar    
  10 C10           -3.7388     3.4586     0.0563 C.ar    
  11 C11           -4.9474     4.1250     0.0704 C.ar    
  12 C12           -6.1329     3.4124     0.0765 C.ar    
  13 C13           -6.1145     2.0293     0.0689 C.ar    
  14 C14           -4.9116     1.3528     0.0489 C.ar    
  15 C15           -7.4494     4.1455     0.0919 C.3     
  16 C16           -7.9073     4.4019    -1.3453 C.3     
  17 C17           -9.3006     5.0339    -1.3316 C.3     
  18 C18           -9.7585     5.2902    -2.7688 C.3     
  19 O19           -9.8486     4.0515    -3.5129 O.3     
  20 C20          -10.8188     4.3103    -4.5415 C.3     
  21 O21          -11.6791     5.3722    -4.1083 O.3     
  22 C22          -11.2259     5.7856    -2.8033 C.3     
  23 C23          -10.1043     4.7210    -5.8305 C.3     
  24 C24          -11.6470     3.0492    -4.7960 C.3     
  25 N25           -6.9653     5.3107    -2.0032 N.2     
  26 N26           -5.9049     4.9855    -2.1855 N.1     
  27 N27           -4.8446     4.6604    -2.3679 N.pl3   
  28 O28           -9.2554     6.2712    -0.6182 O.3     
  29 C29          -10.3183     7.9247     0.7547 C.ar    
  30 C30          -10.6112     9.1075     0.1020 C.ar    
  31 C31          -10.4692    10.3142     0.7611 C.ar    
  32 C32          -10.0348    10.3382     2.0732 C.ar    
  33 C33           -9.7428     9.1553     2.7263 C.ar    
  34 C34           -9.8834     7.9487     2.0667 C.ar    
  35 C35          -10.4791     6.6088     0.0381 C.3     
  36 H36            0.9456    -0.5295    -0.0098 H       
  37 H37           -3.3190    -0.6065     0.0293 H       
  38 H38           -1.2346     3.1364     0.0372 H       
  39 H39           -2.8137     4.0160     0.0519 H       
  40 H40           -4.9675     5.2048     0.0771 H       
  41 H41           -7.0430     1.4778     0.0744 H       
  42 H42           -4.8983     0.2729     0.0430 H       
  43 H43           -8.1955     3.5418     0.6087 H       
  44 H44           -7.3295     5.0969     0.6102 H       
  45 H45           -7.9418     3.4581    -1.8895 H       
  46 H46          -10.0015     4.3577    -0.8421 H       
  47 H47           -9.0955     5.9975    -3.2671 H       
  48 H48          -11.8134     5.3045    -2.0213 H       
  49 H49          -11.2687     6.8704    -2.7065 H       
  50 H50           -9.4426     3.9164    -6.1513 H       
  51 H51          -10.8422     4.9166    -6.6085 H       
  52 H52           -9.5189     5.6226    -5.6500 H       
  53 H53          -12.1603     2.7604    -3.8788 H       
  54 H54          -12.3817     3.2484    -5.5762 H       
  55 H55          -10.9891     2.2406    -5.1143 H       
  56 H56          -10.9507     9.0888    -0.9231 H       
  57 H57          -10.6974    11.2384     0.2509 H       
  58 H58           -9.9232    11.2810     2.5880 H       
  59 H59           -9.4027     9.1741     3.7512 H       
  60 H60           -9.6546     7.0246     2.5767 H       
  61 H61          -11.2764     6.6922    -0.7004 H       
  62 H62          -10.7314     5.8310     0.7589 H       
@<TRIPOS>BOND
   1    1    2 ar
   2    1    7 1
   3    1    6 ar
   4    2    3 ar
   5    2   36 1
   6    3    4 ar
   7    3    8 1
   8    4    5 ar
   9    4   37 1
  10    5    6 ar
  11    5    9 1
  12    6   38 1
  13    9   10 ar
  14    9   14 ar
  15   10   11 ar
  16   10   39 1
  17   11   12 ar
  18   11   40 1
  19   12   13 ar
  20   12   15 1
  21   13   14 ar
  22   13   41 1
  23   14   42 1
  24   15   16 1
  25   15   43 1
  26   15   44 1
  27   16   17 1
  28   16   25 1
  29   16   45 1
  30   17   28 1
  31   17   18 1
  32   17   46 1
  33   18   19 1
  34   18   22 1
  35   18   47 1
  36   19   20 1
  37   20   21 1
  38   20   23 1
  39   20   24 1
  40   21   22 1
  41   22   48 1
  42   22   49 1
  43   23   50 1
  44   23   51 1
  45   23   52 1
  46   24   53 1
  47   24   54 1
  48   24   55 1
  49   25   26 2
  50   26   27 2
  51   28   35 1
  52   29   30 ar
  53   29   34 ar
  54   29   35 1
  55   30   31 ar
  56   30   56 1
  57   31   32 ar
  58   31   57 1
  59   32   33 ar
  60   32   58 1
  61   33   34 ar
  62   33   59 1
  63   34   60 1
  64   35   61 1
  65   35   62 1

#	End of record

