#	Name: ASD01028687
#	Creating user name:	WinNT
#	Creation time:	15. 06. 2019 18:57

#	Modifying user name:	WinNT
#	Modification time:	15. 06. 2019 18:57

#	Program:	/corina/corina34_cracker 3.40 0067  02.08.2006

@<TRIPOS>MOLECULE
ASD01028687
  31   34    0    0    0
SMALL
NO_CHARGES


@<TRIPOS>ATOM
   1 N1            -0.0157     1.3066     0.0092 N.ar    
   2 C2             0.0021    -0.0041     0.0020 C.ar    
   3 C3             1.1967    -0.7211    -0.0128 C.ar    
   4 C4             2.3902    -0.0572    -0.0206 C.ar    
   5 C5             2.3672     1.3504    -0.0132 C.ar    
   6 C6             3.5535     2.1011    -0.0200 C.ar    
   7 C7             3.4892     3.4613    -0.0122 C.ar    
   8 C8             2.2611     4.1187     0.0030 C.ar    
   9 C9             1.0917     3.4224     0.0100 C.ar    
  10 C10            1.1167     2.0170     0.0022 C.ar    
  11 C11            4.7634     4.2659    -0.0195 C.3     
  12 F12            5.7615     3.5527    -0.6920 F       
  13 F13            4.5418     5.4842    -0.6705 F       
  14 C14            6.3929     5.2745     1.8158 C.ar    
  15 C15            6.3935     5.2599     3.2194 C.ar    
  16 C16            7.4199     5.9072     3.9025 C.ar    
  17 C17            8.4010     6.5407     3.1637 C.ar    
  18 C18            8.3379     6.5153     1.7759 C.ar    
  19 N19            7.3602     5.8981     1.1492 N.ar    
  20 O20            5.3090     4.5646     3.6135 O.3     
  21 N21            4.5979     4.1237     2.4740 N.2     
  22 C22            5.2011     4.5266     1.3988 C.2     
  23 Cl23           9.5727     7.3126     0.8521 Cl      
  24 H24           -0.9341    -0.5425     0.0081 H       
  25 H25            1.1789    -1.8009    -0.0177 H       
  26 H26            3.3255    -0.5970    -0.0317 H       
  27 H27            4.5116     1.6027    -0.0311 H       
  28 H28            2.2365     5.1984     0.0097 H       
  29 H29            0.1481     3.9476     0.0221 H       
  30 H30            7.4484     5.9142     4.9821 H       
  31 H31            9.2112     7.0525     3.6617 H       
@<TRIPOS>BOND
   1    1    2 ar
   2    1   10 ar
   3    2    3 ar
   4    2   24 1
   5    3    4 ar
   6    3   25 1
   7    4    5 ar
   8    4   26 1
   9    5    6 ar
  10    5   10 ar
  11    6    7 ar
  12    6   27 1
  13    7    8 ar
  14    7   11 1
  15    8    9 ar
  16    8   28 1
  17    9   10 ar
  18    9   29 1
  19   11   12 1
  20   11   13 1
  21   11   22 1
  22   14   15 ar
  23   14   19 ar
  24   14   22 1
  25   15   16 ar
  26   15   20 1
  27   16   17 ar
  28   16   30 1
  29   17   18 ar
  30   17   31 1
  31   18   19 ar
  32   18   23 1
  33   20   21 1
  34   21   22 2

#	End of record

