#	Name: ASD03090291
#	Creating user name:	WinNT
#	Creation time:	15. 06. 2019 20:28

#	Modifying user name:	WinNT
#	Modification time:	15. 06. 2019 20:28

#	Program:	/corina/corina34_cracker 3.40 0067  02.08.2006

@<TRIPOS>MOLECULE
ASD03090291
  51   53    0    0    0
SMALL
NO_CHARGES


@<TRIPOS>ATOM
   1 N1            -0.3773     0.4110     2.2687 N.ar    
   2 C2            -0.2562    -0.8644     1.9323 C.ar    
   3 C3             0.9947    -1.4202     1.6963 C.ar    
   4 C4             2.1268    -0.6124     1.8187 C.ar    
   5 C5             1.9477     0.7300     2.1762 C.ar    
   6 C6             0.6712     1.2028     2.3933 C.ar    
   7 C7             3.4807    -1.1602     1.5776 C.2     
   8 N8             5.7429    -3.5134     0.2741 N.pl3   
   9 C9             7.1230    -3.6664     0.4304 C.ar    
  10 C10            7.9380    -2.5484     0.5419 C.ar    
  11 C11            9.3066    -2.7044     0.6968 C.ar    
  12 C12            9.8586    -3.9769     0.7400 C.ar    
  13 C13            9.0458    -5.0892     0.6283 C.ar    
  14 C14            7.6809    -4.9384     0.4801 C.ar    
  15 N15            3.7640    -2.2606     0.9102 N.2     
  16 C16            5.0843    -2.4480     0.8912 C.2     
  17 N17            5.6653    -1.4692     1.5467 N.2     
  18 N18            4.6446    -0.6168     1.9980 N.pl3   
  19 C19            4.8084     0.6129     2.7773 C.3     
  20 C20            4.9714     1.7827     1.8413 C.2     
  21 N21            5.1381     3.0247     2.3375 N.am    
  22 O22            4.9526     1.6066     0.6415 O.2     
  23 C23            5.2965     4.1619     1.4276 C.3     
  24 N24           -1.3935    -1.6555     1.8145 N.pl3   
  25 C25           -1.2836    -3.0255     1.3074 C.3     
  26 O26           10.1073    -1.6118     0.8058 O.3     
  27 C27            9.4624    -0.3379     0.8630 C.3     
  28 C28            9.6492    -6.4693     0.6747 C.3     
  29 F29           11.0352    -6.3672     0.8353 F       
  30 F30            9.1061    -7.1798     1.7505 F       
  31 F31            9.3665    -7.1423    -0.5188 F       
  32 H32            1.0900    -2.4606     1.4228 H       
  33 H33            2.7990     1.3861     2.2811 H       
  34 H34            0.5269     2.2370     2.6692 H       
  35 H35            5.2424    -4.1473    -0.2630 H       
  36 H36            7.5067    -1.5588     0.5078 H       
  37 H37           10.9250    -4.0982     0.8606 H       
  38 H38            7.0480    -5.8091     0.3930 H       
  39 H39            3.9286     0.7672     3.4019 H       
  40 H40            5.6923     0.5275     3.4094 H       
  41 H41            5.1531     3.1656     3.2971 H       
  42 H42            6.1764     4.0076     0.8030 H       
  43 H43            4.4126     4.2473     0.7955 H       
  44 H44            5.4184     5.0768     2.0074 H       
  45 H45           -2.2598    -1.3002     2.0681 H       
  46 H46           -0.7933    -3.0143     0.3340 H       
  47 H47           -0.6961    -3.6244     2.0033 H       
  48 H48           -2.2795    -3.4570     1.2077 H       
  49 H49            8.8609    -0.1946    -0.0346 H       
  50 H50            8.8193    -0.2954     1.7420 H       
  51 H51           10.2152     0.4479     0.9252 H       
@<TRIPOS>BOND
   1    1    2 ar
   2    1    6 ar
   3    2    3 ar
   4    2   24 1
   5    3    4 ar
   6    3   32 1
   7    4    5 ar
   8    4    7 1
   9    5    6 ar
  10    5   33 1
  11    6   34 1
  12    7   15 2
  13    7   18 1
  14    8    9 1
  15    8   16 1
  16    8   35 1
  17    9   10 ar
  18    9   14 ar
  19   10   11 ar
  20   10   36 1
  21   11   12 ar
  22   11   26 1
  23   12   13 ar
  24   12   37 1
  25   13   14 ar
  26   13   28 1
  27   14   38 1
  28   15   16 1
  29   16   17 2
  30   17   18 1
  31   18   19 1
  32   19   20 1
  33   19   39 1
  34   19   40 1
  35   20   21 am
  36   20   22 2
  37   21   23 1
  38   21   41 1
  39   23   42 1
  40   23   43 1
  41   23   44 1
  42   24   25 1
  43   24   45 1
  44   25   46 1
  45   25   47 1
  46   25   48 1
  47   26   27 1
  48   27   49 1
  49   27   50 1
  50   27   51 1
  51   28   29 1
  52   28   30 1
  53   28   31 1

#	End of record

