#	Name: ASD02030696
#	Creating user name:	WinNT
#	Creation time:	15. 06. 2019 20:15

#	Modifying user name:	WinNT
#	Modification time:	15. 06. 2019 20:15

#	Program:	/corina/corina34_cracker 3.40 0067  02.08.2006

@<TRIPOS>MOLECULE
ASD02030696
  38   40    0    0    0
SMALL
NO_CHARGES


@<TRIPOS>ATOM
   1 N1            -0.0169     1.3957     0.0097 N.2     
   2 N2             0.0021    -0.0041     0.0020 N.am    
   3 C3             1.1646    -0.6797    -0.0123 C.2     
   4 N4             2.3448    -0.0325    -0.0200 N.am    
   5 C5             2.3757     1.3164    -0.0131 C.2     
   6 C6             1.1074     2.0610     0.0026 C.2     
   7 O7             1.1494    -1.8958    -0.0178 O.2     
   8 O8             3.4386     1.9089    -0.0192 O.2     
   9 O9             1.1051     3.4197     0.0094 O.3     
  10 C10           -1.2627    -0.7434     0.0101 C.3     
  11 C11           -1.6892    -1.0085     1.4554 C.3     
  12 C12           -5.3802    -3.1661     1.4786 C.ar    
  13 C13           -4.1684    -3.8537     1.4633 C.ar    
  14 C14           -2.9799    -3.1522     1.4562 C.ar    
  15 C15           -2.9902    -1.7690     1.4637 C.ar    
  16 C16           -4.1902    -1.0813     1.4793 C.ar    
  17 C17           -5.3847    -1.7727     1.4865 C.ar    
  18 C18           -6.6613    -3.9149     1.4801 C.ar    
  19 C19           -7.8731    -3.2273     1.4954 C.ar    
  20 C20           -9.0617    -3.9288     1.4968 C.ar    
  21 C21           -9.0514    -5.3119     1.4835 C.ar    
  22 C22           -7.8514    -5.9996     1.4688 C.ar    
  23 C23           -6.6569    -5.3081     1.4605 C.ar    
  24 H24            3.1737    -0.5362    -0.0303 H       
  25 H25            0.2211     3.8114     0.0197 H       
  26 H26           -2.0303    -0.1556    -0.4933 H       
  27 H27           -1.1322    -1.6923    -0.5101 H       
  28 H28           -0.9215    -1.5962     1.9587 H       
  29 H29           -1.8197    -0.0596     1.9756 H       
  30 H30           -4.1592    -4.9337     1.4574 H       
  31 H31           -2.0400    -3.6841     1.4443 H       
  32 H32           -4.1925    -0.0013     1.4855 H       
  33 H33           -6.3211    -1.2348     1.4980 H       
  34 H34           -7.8823    -2.1474     1.5064 H       
  35 H35          -10.0016    -3.3969     1.5086 H       
  36 H36           -9.9839    -5.8569     1.4850 H       
  37 H37           -7.8491    -7.0796     1.4589 H       
  38 H38           -5.7205    -5.8460     1.4438 H       
@<TRIPOS>BOND
   1    1    2 1
   2    1    6 2
   3    2    3 am
   4    2   10 1
   5    3    4 am
   6    3    7 2
   7    4    5 am
   8    4   24 1
   9    5    6 1
  10    5    8 2
  11    6    9 1
  12    9   25 1
  13   10   11 1
  14   10   26 1
  15   10   27 1
  16   11   15 1
  17   11   28 1
  18   11   29 1
  19   12   13 ar
  20   12   17 ar
  21   12   18 1
  22   13   14 ar
  23   13   30 1
  24   14   15 ar
  25   14   31 1
  26   15   16 ar
  27   16   17 ar
  28   16   32 1
  29   17   33 1
  30   18   19 ar
  31   18   23 ar
  32   19   20 ar
  33   19   34 1
  34   20   21 ar
  35   20   35 1
  36   21   22 ar
  37   21   36 1
  38   22   23 ar
  39   22   37 1
  40   23   38 1

#	End of record

