#	Name: ASD05940025
#	Creating user name:	WinNT
#	Creation time:	15. 06. 2019 21:04

#	Modifying user name:	WinNT
#	Modification time:	15. 06. 2019 21:04

#	Program:	/corina/corina34_cracker 3.40 0067  02.08.2006

@<TRIPOS>MOLECULE
ASD05940025
  63   67    0    0    0
SMALL
NO_CHARGES


@<TRIPOS>ATOM
   1 N1            -0.0159     1.3198     0.0093 N.ar    
   2 C2             0.0021    -0.0041     0.0020 C.ar    
   3 N3             1.1339    -0.6929    -0.0101 N.ar    
   4 C4             2.3079    -0.0668    -0.0158 C.ar    
   5 C5             2.3276     1.3271    -0.0126 C.ar    
   6 C6             1.1197     2.0180     0.0022 C.ar    
   7 N7             3.4930    -0.7821    -0.0194 N.3     
   8 C8             4.5338    -0.1211    -0.8129 C.3     
   9 C9             4.6632     1.3230    -0.4026 C.2     
  10 N10            3.5577     2.0071    -0.0282 N.am    
  11 N11            1.0978     3.4061     0.0085 N.pl3   
  12 N12           -1.2013    -0.6912     0.0077 N.pl3   
  13 C13            3.2750    -2.1598    -0.4803 C.3     
  14 O14            5.7477     1.8667    -0.4080 O.2     
  15 C15           -2.4664     0.0473     0.0215 C.3     
  16 C16           -3.6341    -0.9414     0.0253 C.3     
  17 O17           -3.6474    -1.6728     1.2568 O.3     
  18 C18            4.6055    -2.8306    -0.7058 C.ar    
  19 C19            5.2166    -3.5183     0.3262 C.ar    
  20 C20            5.2121    -2.7631    -1.9458 C.ar    
  21 C21            6.4328    -3.3785    -2.1527 C.ar    
  22 C22            7.0466    -4.0608    -1.1193 C.ar    
  23 C23            6.4369    -4.1335     0.1195 C.ar    
  24 C24            7.1062    -4.8775     1.2462 C.3     
  25 C25            8.4526    -4.5810     3.2421 C.3     
  26 N26            7.9682    -3.9556     1.9979 N.3     
  27 C27            8.0232    -3.6681     4.4099 C.3     
  28 C28            7.8164    -2.2935     3.7211 C.3     
  29 C29            7.2418    -2.7159     2.3459 C.3     
  30 C30           -4.8645    -1.4070     1.9721 C.3     
  31 C31           -5.8850    -0.9770     0.8884 C.3     
  32 C32           -4.9700    -0.1744    -0.0763 C.3     
  33 H33            5.4855    -0.6282    -0.6543 H       
  34 H34            4.2706    -0.1741    -1.8693 H       
  35 H35            3.6126     2.9424     0.2229 H       
  36 H36            1.9301     3.9043     0.0026 H       
  37 H37            0.2503     3.8777     0.0188 H       
  38 H38           -1.2059    -1.6612     0.0025 H       
  39 H39            2.7135    -2.7108     0.2742 H       
  40 H40            2.7123    -2.1459    -1.4138 H       
  41 H41           -2.5142     0.6694     0.9153 H       
  42 H42           -2.5281     0.6790    -0.8646 H       
  43 H43           -3.5373    -1.6309    -0.8133 H       
  44 H44            4.7406    -3.5745     1.2941 H       
  45 H45            4.7325    -2.2299    -2.7533 H       
  46 H46            6.9065    -3.3263    -3.1218 H       
  47 H47            8.0000    -4.5418    -1.2809 H       
  48 H48            6.3470    -5.2889     1.9114 H       
  49 H49            7.7098    -5.6883     0.8383 H       
  50 H50            8.0054    -5.5681     3.3594 H       
  51 H51            9.5391    -4.6643     3.2167 H       
  52 H52            7.0919    -4.0212     4.8528 H       
  53 H53            8.8102    -3.6080     5.1616 H       
  54 H54            7.1007    -1.6840     4.2728 H       
  55 H55            8.7647    -1.7690     3.6036 H       
  56 H56            7.4321    -1.9428     1.6015 H       
  57 H57            6.1726    -2.9122     2.4256 H       
  58 H58           -5.2091    -2.3077     2.4802 H       
  59 H59           -4.7129    -0.6011     2.6902 H       
  60 H60           -6.3171    -1.8444     0.3894 H       
  61 H61           -6.6630    -0.3416     1.3116 H       
  62 H62           -4.8538     0.8542     0.2652 H       
  63 H63           -5.3583    -0.2048    -1.0943 H       
@<TRIPOS>BOND
   1    1    2 ar
   2    1    6 ar
   3    2    3 ar
   4    2   12 1
   5    3    4 ar
   6    4    5 ar
   7    4    7 1
   8    5    6 ar
   9    5   10 1
  10    6   11 1
  11    7    8 1
  12    7   13 1
  13    8    9 1
  14    8   33 1
  15    8   34 1
  16    9   10 am
  17    9   14 2
  18   10   35 1
  19   11   36 1
  20   11   37 1
  21   12   15 1
  22   12   38 1
  23   13   18 1
  24   13   39 1
  25   13   40 1
  26   15   16 1
  27   15   41 1
  28   15   42 1
  29   16   17 1
  30   16   32 1
  31   16   43 1
  32   17   30 1
  33   18   19 ar
  34   18   20 ar
  35   19   23 ar
  36   19   44 1
  37   20   21 ar
  38   20   45 1
  39   21   22 ar
  40   21   46 1
  41   22   23 ar
  42   22   47 1
  43   23   24 1
  44   24   26 1
  45   24   48 1
  46   24   49 1
  47   25   26 1
  48   25   27 1
  49   25   50 1
  50   25   51 1
  51   26   29 1
  52   27   28 1
  53   27   52 1
  54   27   53 1
  55   28   29 1
  56   28   54 1
  57   28   55 1
  58   29   56 1
  59   29   57 1
  60   30   31 1
  61   30   58 1
  62   30   59 1
  63   31   32 1
  64   31   60 1
  65   31   61 1
  66   32   62 1
  67   32   63 1

#	End of record

