#	Name: ASD04590119
#	Creating user name:	WinNT
#	Creation time:	15. 06. 2019 20:50

#	Modifying user name:	WinNT
#	Modification time:	15. 06. 2019 20:50

#	Program:	/corina/corina34_cracker 3.40 0067  02.08.2006

@<TRIPOS>MOLECULE
ASD04590119
  56   59    0    0    0
SMALL
NO_CHARGES


@<TRIPOS>ATOM
   1 N1            -0.0153     1.2802     0.0091 N.pl3   
   2 N2             0.0021    -0.0041     0.0020 N.2     
   3 C3             1.2455    -0.4440    -0.0122 C.2     
   4 C4             2.0903     0.6961    -0.0142 C.2     
   5 C5             1.2523     1.7667    -0.0004 C.2     
   6 C6             1.6765    -1.8547    -0.0239 C.2     
   7 N7             0.7571    -2.8402    -0.0209 N.am    
   8 O8             2.8611    -2.1284    -0.0362 O.2     
   9 N9             3.4930     0.7146    -0.0268 N.am    
  10 C10            4.1514     1.8906    -0.0268 C.2     
  11 C11            6.3408     1.9134     1.1629 C.ar    
  12 C12            5.6264     1.9101    -0.0401 C.ar    
  13 C13            1.1851    -4.2412    -0.0325 C.3     
  14 C14            0.0893    -5.1161     0.5826 C.3     
  15 C15            0.5159    -6.5841     0.5123 C.3     
  16 N16            0.7411    -6.9632    -0.8884 N.3     
  17 C17            1.8217    -6.1687    -1.4863 C.3     
  18 C18            1.4341    -4.6882    -1.4757 C.3     
  19 C19            7.7227     1.9312     1.1412 C.ar    
  20 C20            8.3993     1.9459    -0.0650 C.ar    
  21 C21            7.7010     1.9428    -1.2589 C.ar    
  22 C22            6.3189     1.9250    -1.2557 C.ar    
  23 F23            5.6818     1.9046     2.3422 F       
  24 F24            5.6388     1.9216    -2.4230 F       
  25 O25            3.5296     2.9356    -0.0160 O.2     
  26 C26            1.0175    -8.4011    -1.0067 C.3     
  27 C27            1.1233    -8.7825    -2.4865 C.3     
  28 C28            2.3425    -8.7272    -0.3108 C.3     
  29 C29            2.6611   -10.2117    -0.5068 C.3     
  30 O30            2.7146   -10.5056    -1.9043 O.3     
  31 C31            1.4890   -10.2649    -2.5985 C.3     
  32 H32           -0.8184     1.8242     0.0160 H       
  33 H33            1.5405     2.8076     0.0021 H       
  34 H34           -0.1880    -2.6218    -0.0111 H       
  35 H35            3.9890    -0.1189    -0.0354 H       
  36 H36            2.1029    -4.3465     0.5459 H       
  37 H37           -0.0627    -4.8307     1.6236 H       
  38 H38           -0.8392    -4.9800     0.0281 H       
  39 H39            1.4370    -6.7222     1.0785 H       
  40 H40           -0.2684    -7.2110     0.9366 H       
  41 H41            2.7367    -6.3087    -0.9107 H       
  42 H42            1.9858    -6.4938    -2.5137 H       
  43 H43            0.5268    -4.5454    -2.0626 H       
  44 H44            2.2429    -4.0972    -1.9053 H       
  45 H45            8.2758     1.9341     2.0688 H       
  46 H46            9.4791     1.9601    -0.0747 H       
  47 H47            8.2372     1.9546    -2.1963 H       
  48 H48            0.2106    -8.9670    -0.5411 H       
  49 H49            0.1665    -8.6052    -2.9776 H       
  50 H50            1.8960    -8.1797    -2.9637 H       
  51 H51            3.1398    -8.1233    -0.7440 H       
  52 H52            2.2576    -8.5104     0.7541 H       
  53 H53            3.6240   -10.4403    -0.0502 H       
  54 H54            1.8839   -10.8153    -0.0380 H       
  55 H55            0.6964   -10.8691    -2.1570 H       
  56 H56            1.6076   -10.5317    -3.6487 H       
@<TRIPOS>BOND
   1    1    2 1
   2    1    5 1
   3    1   32 1
   4    2    3 2
   5    3    4 1
   6    3    6 1
   7    4    5 2
   8    4    9 1
   9    5   33 1
  10    6    7 am
  11    6    8 2
  12    7   13 1
  13    7   34 1
  14    9   10 am
  15    9   35 1
  16   10   25 2
  17   10   12 1
  18   11   12 ar
  19   11   19 ar
  20   11   23 1
  21   12   22 ar
  22   13   14 1
  23   13   18 1
  24   13   36 1
  25   14   15 1
  26   14   37 1
  27   14   38 1
  28   15   16 1
  29   15   39 1
  30   15   40 1
  31   16   17 1
  32   16   26 1
  33   17   18 1
  34   17   41 1
  35   17   42 1
  36   18   43 1
  37   18   44 1
  38   19   20 ar
  39   19   45 1
  40   20   21 ar
  41   20   46 1
  42   21   22 ar
  43   21   47 1
  44   22   24 1
  45   26   27 1
  46   26   28 1
  47   26   48 1
  48   27   31 1
  49   27   49 1
  50   27   50 1
  51   28   29 1
  52   28   51 1
  53   28   52 1
  54   29   30 1
  55   29   53 1
  56   29   54 1
  57   30   31 1
  58   31   55 1
  59   31   56 1

#	End of record

