#	Name: ASD00069365
#	Creating user name:	WinNT
#	Creation time:	15. 06. 2019 18:29

#	Modifying user name:	WinNT
#	Modification time:	15. 06. 2019 18:29

#	Program:	/corina/corina34_cracker 3.40 0067  02.08.2006

@<TRIPOS>MOLECULE
ASD00069365
  94   99    0    0    0
SMALL
NO_CHARGES


@<TRIPOS>ATOM
   1 C1            -0.0892     1.3841    -0.1619 C.2     
   2 C2            -0.0568     0.0071    -0.1362 C.2     
   3 N3             1.1938     1.8062    -0.1925 N.pl3   
   4 C4             1.9910     0.6952    -0.1853 C.2     
   5 N5             1.2275    -0.3732    -0.1515 N.2     
   6 C6            -1.2338    -0.8934    -0.0979 C.ar    
   7 N7            -2.4691    -0.3914    -0.0852 N.ar    
   8 C8            -1.0650    -2.2765    -0.0803 C.ar    
   9 C9            -2.2013    -3.0820    -0.0442 C.ar    
  10 N10           -3.4015    -2.5082    -0.0279 N.ar    
  11 C11           -3.5245    -1.1895    -0.0510 C.ar    
  12 C12            3.4654     0.6962    -0.2123 C.2     
  13 N13            4.1404    -0.4702    -0.2018 N.am    
  14 O14            4.0722     1.7497    -0.2439 O.2     
  15 C15            5.5333    -0.4745    -0.3469 C.ar    
  16 C16            6.3020    -1.4316     0.3143 C.ar    
  17 C17            6.1514     0.4699    -1.1534 C.ar    
  18 C18            7.5264     0.4645    -1.2962 C.ar    
  19 C19            8.2906    -0.4807    -0.6371 C.ar    
  20 C20            7.6825    -1.4304     0.1657 C.ar    
  21 N21            5.6835    -2.3910     1.1262 N.3     
  22 C22            5.9631    -3.7490     0.6425 C.3     
  23 C23            5.1573    -4.7597     1.4616 C.3     
  24 C24            5.5417    -4.6347     2.9385 C.3     
  25 C25            5.2862    -3.1986     3.4044 C.3     
  26 C26            6.0883    -2.2331     2.5289 C.3     
  27 F27            8.4323    -2.3525     0.8082 F       
  28 N28           -2.0830    -4.4628    -0.0261 N.3     
  29 C29           -1.4843    -4.9561    -1.2729 C.3     
  30 C30           -1.3167    -4.9100     1.1441 C.3     
  31 C31           -1.3301    -6.4388     1.2105 C.3     
  32 C32           -0.7159    -7.0059    -0.0723 C.3     
  33 C33           -1.5027    -6.4863    -1.2787 C.3     
  34 C34           -2.9268    -6.9726    -1.1979 C.2     
  35 N35           -3.1876    -8.2949    -1.1847 N.am    
  36 O36           -3.8382    -6.1742    -1.1449 O.2     
  37 C37           -4.5720    -8.7676    -1.1061 C.3     
  38 C38           -4.6676   -10.1689    -1.7130 C.3     
  39 C39           -5.0125    -8.8150     0.3584 C.3     
  40 C40           -6.4583    -9.3087     0.4404 C.3     
  41 C41           -6.5539   -10.7100    -0.1665 C.3     
  42 C42           -6.1134   -10.6626    -1.6310 C.3     
  43 C43            4.6955    -5.6004     3.7706 C.3     
  44 N44            5.1464    -5.5669     5.1683 N.3     
  45 N45           -4.7907    -0.6310    -0.0324 N.pl3   
  46 C46           -4.9495     0.8252    -0.0574 C.3     
  47 C47           -1.9480    -4.3389     2.4154 C.3     
  48 H48           -0.9715     2.0069    -0.1622 H       
  49 H49            1.4944     2.7281    -0.2157 H       
  50 H50           -0.0774    -2.7135    -0.0946 H       
  51 H51            3.6615    -1.3068    -0.0938 H       
  52 H52            5.5581     1.2097    -1.6702 H       
  53 H53            8.0051     1.2006    -1.9249 H       
  54 H54            9.3645    -0.4805    -0.7521 H       
  55 H55            5.6814    -3.8256    -0.4077 H       
  56 H56            7.0270    -3.9607     0.7493 H       
  57 H57            4.0927    -4.5572     1.3442 H       
  58 H58            5.3770    -5.7687     1.1126 H       
  59 H59            6.5976    -4.8752     3.0617 H       
  60 H60            4.2236    -2.9715     3.3176 H       
  61 H61            5.5979    -3.0922     4.4435 H       
  62 H62            7.1516    -2.4519     2.6269 H       
  63 H63            5.8974    -1.2088     2.8489 H       
  64 H64           -2.0558    -4.5828    -2.1227 H       
  65 H65           -0.4549    -4.6050    -1.3453 H       
  66 H66           -0.2881    -4.5591     1.0604 H       
  67 H67           -0.7483    -6.7709     2.0703 H       
  68 H68           -2.3574    -6.7898     1.3081 H       
  69 H69            0.3235    -6.6869    -0.1505 H       
  70 H70           -0.7628    -8.0947    -0.0483 H       
  71 H71           -1.0442    -6.8523    -2.1974 H       
  72 H72           -2.4587    -8.9334    -1.2271 H       
  73 H73           -5.2202    -8.0874    -1.6586 H       
  74 H74           -4.3538   -10.1351    -2.7563 H       
  75 H75           -4.0195   -10.8491    -1.1605 H       
  76 H76           -4.3643    -9.4952     0.9109 H       
  77 H77           -4.9443    -7.8167     0.7907 H       
  78 H78           -6.7720    -9.3425     1.4837 H       
  79 H79           -7.1064    -8.6285    -0.1121 H       
  80 H80           -5.9057   -11.3902     0.3860 H       
  81 H81           -7.5839   -11.0617    -0.1081 H       
  82 H82           -6.7616    -9.9824    -2.1835 H       
  83 H83           -6.1815   -11.6609    -2.0633 H       
  84 H84            3.6483    -5.3025     3.7194 H       
  85 H85            4.8054    -6.6110     3.3775 H       
  86 H86            5.1151    -4.6277     5.5359 H       
  87 H87            4.6026    -6.1968     5.7389 H       
  88 H88           -5.5730    -1.2037    -0.0027 H       
  89 H89           -6.0102     1.0754    -0.0375 H       
  90 H90           -4.4573     1.2593     0.8129 H       
  91 H91           -4.4990     1.2242    -0.9662 H       
  92 H92           -2.9464    -4.7570     2.5447 H       
  93 H93           -1.3312    -4.5988     3.2757 H       
  94 H94           -2.0163    -3.2543     2.3316 H       
@<TRIPOS>BOND
   1    1    2 2
   2    1    3 1
   3    1   48 1
   4    2    6 1
   5    2    5 1
   6    3    4 1
   7    3   49 1
   8    4    5 2
   9    4   12 1
  10    6    7 ar
  11    6    8 ar
  12    7   11 ar
  13    8    9 ar
  14    8   50 1
  15    9   10 ar
  16    9   28 1
  17   10   11 ar
  18   11   45 1
  19   12   13 am
  20   12   14 2
  21   13   15 1
  22   13   51 1
  23   15   16 ar
  24   15   17 ar
  25   16   21 1
  26   16   20 ar
  27   17   18 ar
  28   17   52 1
  29   18   19 ar
  30   18   53 1
  31   19   20 ar
  32   19   54 1
  33   20   27 1
  34   21   22 1
  35   21   26 1
  36   22   23 1
  37   22   55 1
  38   22   56 1
  39   23   24 1
  40   23   57 1
  41   23   58 1
  42   24   25 1
  43   24   43 1
  44   24   59 1
  45   25   26 1
  46   25   60 1
  47   25   61 1
  48   26   62 1
  49   26   63 1
  50   28   29 1
  51   28   30 1
  52   29   33 1
  53   29   64 1
  54   29   65 1
  55   30   31 1
  56   30   47 1
  57   30   66 1
  58   31   32 1
  59   31   67 1
  60   31   68 1
  61   32   33 1
  62   32   69 1
  63   32   70 1
  64   33   34 1
  65   33   71 1
  66   34   35 am
  67   34   36 2
  68   35   37 1
  69   35   72 1
  70   37   38 1
  71   37   39 1
  72   37   73 1
  73   38   42 1
  74   38   74 1
  75   38   75 1
  76   39   40 1
  77   39   76 1
  78   39   77 1
  79   40   41 1
  80   40   78 1
  81   40   79 1
  82   41   42 1
  83   41   80 1
  84   41   81 1
  85   42   82 1
  86   42   83 1
  87   43   44 1
  88   43   84 1
  89   43   85 1
  90   44   86 1
  91   44   87 1
  92   45   46 1
  93   45   88 1
  94   46   89 1
  95   46   90 1
  96   46   91 1
  97   47   92 1
  98   47   93 1
  99   47   94 1

#	End of record

