#	Name: ASD01412011
#	Creating user name:	WinNT
#	Creation time:	15. 06. 2019 19:19

#	Modifying user name:	WinNT
#	Modification time:	15. 06. 2019 19:19

#	Program:	/corina/corina34_cracker 3.40 0067  02.08.2006

@<TRIPOS>MOLECULE
ASD01412011
  79   83    0    0    0
SMALL
NO_CHARGES


@<TRIPOS>ATOM
   1 C1            -1.1719     3.2494    -0.6273 C.ar    
   2 C2            -0.9743     1.9109    -1.0230 C.ar    
   3 C3            -2.0425     1.0033    -0.9798 C.ar    
   4 C4            -3.2690     1.4147    -0.5566 C.ar    
   5 C5            -3.4749     2.7445    -0.1610 C.ar    
   6 C6            -2.4230     3.6579    -0.1926 C.ar    
   7 N7             0.0356     3.9015    -0.7723 N.pl3   
   8 C8             0.9676     3.0076    -1.2439 C.2     
   9 C9             0.3837     1.7930    -1.4052 C.2     
  10 C10            1.0607     0.5415    -1.9019 C.3     
  11 C11            0.9730    -0.5458    -0.8291 C.3     
  12 C12            1.6603    -1.8164    -1.3333 C.3     
  13 C13            0.9659    -2.3003    -2.6079 C.3     
  14 C14            1.0536    -1.2129    -3.6807 C.3     
  15 C15            0.3663     0.0576    -3.1764 C.3     
  16 C16           -4.8097     3.1767     0.2956 C.2     
  17 O17           -4.9911     4.3290     0.6392 O.2     
  18 N18           -5.8279     2.2945     0.3319 N.am    
  19 C19           -7.1532     2.7237     0.7852 C.3     
  20 C20           -8.1050     1.5565     0.7310 C.2     
  21 C21           -7.0585     3.2381     2.2230 C.3     
  22 C22           -7.6657     3.8424    -0.1240 C.3     
  23 C23           -8.8162    -0.4855    -0.2516 C.ar    
  24 O24           -8.9750     1.4441     1.5684 O.2     
  25 C25           -9.1916    -1.0743     0.9522 C.ar    
  26 C26          -10.0116    -2.1795     0.9538 C.ar    
  27 C27          -10.4686    -2.7112    -0.2581 C.ar    
  28 C28          -10.0887    -2.1152    -1.4668 C.ar    
  29 C29           -9.2680    -1.0106    -1.4587 C.ar    
  30 C30          -11.3439    -3.8914    -0.2616 C.2     
  31 C31          -12.3915    -3.9580     0.5890 C.2     
  32 N32           -7.9894     0.6376    -0.2482 N.am    
  33 C33            0.2835     5.3141    -0.4735 C.3     
  34 C34            2.3838     3.3204    -1.5308 C.ar    
  35 C35            2.7614     3.7609    -2.8011 C.ar    
  36 C36            4.0863     4.0512    -3.0618 C.ar    
  37 C37            5.0374     3.9059    -2.0682 C.ar    
  38 C38            4.6692     3.4693    -0.8076 C.ar    
  39 C39            3.3486     3.1822    -0.5317 C.ar    
  40 Cl40           1.5687     3.9426    -4.0494 Cl      
  41 C41          -12.7897    -2.8069     1.3146 C.2     
  42 O42          -12.2158    -1.7488     1.1395 O.2     
  43 O43          -13.8054    -2.8852     2.1995 O.3     
  44 H44           -1.8920    -0.0223    -1.2827 H       
  45 H45           -4.0891     0.7126    -0.5256 H       
  46 H46           -2.5838     4.6813     0.1128 H       
  47 H47            2.1075     0.7558    -2.1174 H       
  48 H48            1.4677    -0.2011     0.0790 H       
  49 H49           -0.0738    -0.7601    -0.6136 H       
  50 H50            2.7071    -1.6021    -1.5488 H       
  51 H51            1.5978    -2.5910    -0.5691 H       
  52 H52            1.4555    -3.2054    -2.9672 H       
  53 H53           -0.0809    -2.5145    -2.3924 H       
  54 H54            2.1003    -0.9987    -3.8962 H       
  55 H55            0.5589    -1.5577    -4.5887 H       
  56 H56           -0.6805    -0.1566    -2.9610 H       
  57 H57            0.4287     0.8322    -3.9407 H       
  58 H58           -5.6832     1.3753     0.0578 H       
  59 H59           -6.3701     4.0823     2.2623 H       
  60 H60           -8.0446     3.5575     2.5603 H       
  61 H61           -6.6934     2.4411     2.8708 H       
  62 H62           -7.7331     3.4758    -1.1483 H       
  63 H63           -8.6518     4.1617     0.2133 H       
  64 H64           -6.9773     4.6865    -0.0848 H       
  65 H65           -8.8386    -0.6635     1.8865 H       
  66 H66          -10.3018    -2.6362     1.8884 H       
  67 H67          -10.4386    -2.5221    -2.4040 H       
  68 H68           -8.9748    -0.5500    -2.3905 H       
  69 H69          -11.1499    -4.7056    -0.9441 H       
  70 H70          -12.9256    -4.8881     0.7161 H       
  71 H71           -7.3310     0.7574    -0.9504 H       
  72 H72            0.5954     5.4163     0.5660 H       
  73 H73            1.0698     5.6913    -1.1275 H       
  74 H74           -0.6301     5.8857    -0.6366 H       
  75 H75            4.3803     4.3920    -4.0435 H       
  76 H76            6.0721     4.1338    -2.2772 H       
  77 H77            5.4172     3.3574    -0.0367 H       
  78 H78            3.0632     2.8416     0.4527 H       
  79 H79          -14.0041    -2.0503     2.6451 H       
@<TRIPOS>BOND
   1    1    2 ar
   2    1    7 1
   3    1    6 ar
   4    2    3 ar
   5    2    9 1
   6    3    4 ar
   7    3   44 1
   8    4    5 ar
   9    4   45 1
  10    5    6 ar
  11    5   16 1
  12    6   46 1
  13    7    8 1
  14    7   33 1
  15    8    9 2
  16    8   34 1
  17    9   10 1
  18   10   11 1
  19   10   15 1
  20   10   47 1
  21   11   12 1
  22   11   48 1
  23   11   49 1
  24   12   13 1
  25   12   50 1
  26   12   51 1
  27   13   14 1
  28   13   52 1
  29   13   53 1
  30   14   15 1
  31   14   54 1
  32   14   55 1
  33   15   56 1
  34   15   57 1
  35   16   17 2
  36   16   18 am
  37   18   19 1
  38   18   58 1
  39   19   20 1
  40   19   21 1
  41   19   22 1
  42   20   24 2
  43   20   32 am
  44   21   59 1
  45   21   60 1
  46   21   61 1
  47   22   62 1
  48   22   63 1
  49   22   64 1
  50   23   25 ar
  51   23   29 ar
  52   23   32 1
  53   25   26 ar
  54   25   65 1
  55   26   27 ar
  56   26   66 1
  57   27   28 ar
  58   27   30 1
  59   28   29 ar
  60   28   67 1
  61   29   68 1
  62   30   31 2
  63   30   69 1
  64   31   41 1
  65   31   70 1
  66   32   71 1
  67   33   72 1
  68   33   73 1
  69   33   74 1
  70   34   35 ar
  71   34   39 ar
  72   35   36 ar
  73   35   40 1
  74   36   37 ar
  75   36   75 1
  76   37   38 ar
  77   37   76 1
  78   38   39 ar
  79   38   77 1
  80   39   78 1
  81   41   42 2
  82   41   43 1
  83   43   79 1

#	End of record

