#	Name: ASD07930294
#	Creating user name:	WinNT
#	Creation time:	15. 06. 2019 21:12

#	Modifying user name:	WinNT
#	Modification time:	15. 06. 2019 21:12

#	Program:	/corina/corina34_cracker 3.40 0067  02.08.2006

@<TRIPOS>MOLECULE
ASD07930294
  60   64    0    0    0
SMALL
NO_CHARGES


@<TRIPOS>ATOM
   1 C1             0.6195     0.5271    -0.3480 C.2     
   2 C2             0.9266    -0.8059    -0.3374 C.2     
   3 C3             2.3305    -1.2066    -0.2164 C.2     
   4 N4             3.2791    -0.2591    -0.1172 N.am    
   5 C5             2.9448     1.0762    -0.1322 C.2     
   6 C6             1.6476     1.4723    -0.2439 C.2     
   7 C7             4.6958    -0.6262     0.0118 C.3     
   8 C8             5.5191     0.3444    -0.8479 C.3     
   9 N9             5.2875     1.7114    -0.3599 N.am    
  10 C10            4.0275     2.0791    -0.0255 C.2     
  11 C11            6.3986     2.6584    -0.2373 C.3     
  12 O12            3.7910     3.2096     0.3543 O.2     
  13 O13            2.6355    -2.3870    -0.2053 O.2     
  14 N14           -0.0814    -1.7688    -0.4398 N.pl3   
  15 C15           -0.2583    -2.6479    -1.4610 C.2     
  16 N16           -1.3030    -3.3847    -1.1984 N.2     
  17 C17           -1.8253    -3.0121    -0.0203 C.2     
  18 C18           -1.0754    -2.0089     0.4740 C.2     
  19 C19           -3.0384    -3.6160     0.6391 C.3     
  20 C20            6.6421     3.3363    -1.5872 C.3     
  21 O21            5.4970     4.1136    -1.9432 O.3     
  22 C22            5.5022     4.6918    -3.1724 C.ar    
  23 C23            6.5399     4.4398    -4.0550 C.ar    
  24 C24            6.5443     5.0292    -5.3053 C.ar    
  25 C25            5.5146     5.8723    -5.6831 C.ar    
  26 C26            4.4743     6.1322    -4.8136 C.ar    
  27 C27            4.4571     5.5391    -3.5537 C.ar    
  28 C28            3.3417     5.8149    -2.6156 C.ar    
  29 C29            3.0279     7.1277    -2.2688 C.ar    
  30 C30            1.9891     7.3785    -1.3954 C.ar    
  31 C31            1.2599     6.3297    -0.8647 C.ar    
  32 C32            1.5669     5.0247    -1.2054 C.ar    
  33 C33            2.5999     4.7625    -2.0823 C.ar    
  34 C34            0.1270     6.6099     0.0888 C.3     
  35 H35           -0.4075     0.8482    -0.4405 H       
  36 H36            1.4088     2.5255    -0.2525 H       
  37 H37            5.0034    -0.5465     1.0544 H       
  38 H38            4.8451    -1.6471    -0.3399 H       
  39 H39            6.5781     0.1001    -0.7639 H       
  40 H40            5.2044     0.2690    -1.8888 H       
  41 H41            6.1519     3.4133     0.5092 H       
  42 H42            7.2985     2.1250     0.0689 H       
  43 H43            0.3613    -2.7237    -2.3423 H       
  44 H44           -1.2310    -1.4885     1.4074 H       
  45 H45           -2.7301    -4.4420     1.2800 H       
  46 H46           -3.5407    -2.8578     1.2399 H       
  47 H47           -3.7218    -3.9850    -0.1257 H       
  48 H48            7.5143     3.9861    -1.5153 H       
  49 H49            6.8167     2.5766    -2.3490 H       
  50 H50            7.3465     3.7824    -3.7656 H       
  51 H51            7.3554     4.8308    -5.9902 H       
  52 H52            5.5248     6.3292    -6.6616 H       
  53 H53            3.6723     6.7912    -5.1118 H       
  54 H54            3.5968     7.9473    -2.6823 H       
  55 H55            1.7453     8.3954    -1.1256 H       
  56 H56            0.9942     4.2097    -0.7880 H       
  57 H57            2.8385     3.7432    -2.3479 H       
  58 H58           -0.7992     6.7309    -0.4729 H       
  59 H59            0.0236     5.7775     0.7849 H       
  60 H60            0.3371     7.5239     0.6442 H       
@<TRIPOS>BOND
   1    1    2 2
   2    1    6 1
   3    1   35 1
   4    2    3 1
   5    2   14 1
   6    3    4 am
   7    3   13 2
   8    4    5 1
   9    4    7 1
  10    5    6 2
  11    5   10 1
  12    6   36 1
  13    7    8 1
  14    7   37 1
  15    7   38 1
  16    8    9 1
  17    8   39 1
  18    8   40 1
  19    9   10 am
  20    9   11 1
  21   10   12 2
  22   11   20 1
  23   11   41 1
  24   11   42 1
  25   14   15 1
  26   14   18 1
  27   15   16 2
  28   15   43 1
  29   16   17 1
  30   17   18 2
  31   17   19 1
  32   18   44 1
  33   19   45 1
  34   19   46 1
  35   19   47 1
  36   20   21 1
  37   20   48 1
  38   20   49 1
  39   21   22 1
  40   22   23 ar
  41   22   27 ar
  42   23   24 ar
  43   23   50 1
  44   24   25 ar
  45   24   51 1
  46   25   26 ar
  47   25   52 1
  48   26   27 ar
  49   26   53 1
  50   27   28 1
  51   28   29 ar
  52   28   33 ar
  53   29   30 ar
  54   29   54 1
  55   30   31 ar
  56   30   55 1
  57   31   32 ar
  58   31   34 1
  59   32   33 ar
  60   32   56 1
  61   33   57 1
  62   34   58 1
  63   34   59 1
  64   34   60 1

#	End of record

