#	Name: ASD01900546
#	Creating user name:	WinNT
#	Creation time:	15. 06. 2019 19:52

#	Modifying user name:	WinNT
#	Modification time:	15. 06. 2019 19:52

#	Program:	/corina/corina34_cracker 3.40 0067  02.08.2006

@<TRIPOS>MOLECULE
ASD01900546
  43   46    0    0    0
SMALL
NO_CHARGES


@<TRIPOS>ATOM
   1 C1            -0.0134     1.3116    -0.0313 C.ar    
   2 N2            -0.0127    -0.0041    -0.0188 N.ar    
   3 C3            -0.8714    -0.6775     0.7432 C.ar    
   4 C4            -1.7758     0.0352     1.5317 C.ar    
   5 C5            -1.7382     1.4214     1.4848 C.ar    
   6 N6            -0.8543     2.0155     0.7014 N.ar    
   7 C7            -0.8674    -2.1615     0.7539 C.2     
   8 O8            -1.6558    -2.7661     1.4533 O.2     
   9 N9             0.0106    -2.8386    -0.0124 N.am    
  10 C10            0.0808    -4.2336     0.0702 C.ar    
  11 C11           -1.0743    -4.9760     0.2808 C.ar    
  12 C12           -1.0044    -6.3529     0.3623 C.ar    
  13 C13            0.2213    -6.9950     0.2336 C.ar    
  14 C14            1.3750    -6.2527     0.0238 C.ar    
  15 C15            1.3046    -4.8765    -0.0639 C.ar    
  16 C16            0.3806   -10.6175    -0.1929 C.3     
  17 C17           -0.8435   -11.4957    -0.4689 C.3     
  18 C18           -0.7607   -12.7451     0.4137 C.3     
  19 C19           -0.8236   -12.3616     1.8924 C.3     
  20 C20            0.3823   -11.4794     2.2505 C.3     
  21 N21            0.4371   -10.3939     1.2679 N.am    
  22 C22            0.4837    -9.0731     1.4578 C.2     
  23 N23            0.2926    -8.3943     0.3164 N.am    
  24 C24            0.1767    -9.2236    -0.7426 C.2     
  25 O25            0.6759    -8.5479     2.5369 O.2     
  26 O26           -0.0445    -8.9152    -1.8940 O.2     
  27 Cl27          -2.4474    -7.2814     0.6260 Cl      
  28 H28            0.6983     1.8304    -0.6564 H       
  29 H29           -2.4867    -0.4788     2.1617 H       
  30 H30           -2.4224     2.0075     2.0804 H       
  31 H31            0.5938    -2.3588    -0.6211 H       
  32 H32           -2.0266    -4.4766     0.3811 H       
  33 H33            2.3275    -6.7519    -0.0755 H       
  34 H34            2.2019    -4.2996    -0.2321 H       
  35 H35            1.2951   -11.0797    -0.5645 H       
  36 H36           -1.7519   -10.9413    -0.2334 H       
  37 H37           -0.8535   -11.7896    -1.5185 H       
  38 H38           -1.5935   -13.4077     0.1782 H       
  39 H39            0.1776   -13.2634     0.2161 H       
  40 H40           -1.7450   -11.8123     2.0857 H       
  41 H41           -0.8060   -13.2649     2.5023 H       
  42 H42            0.2557   -11.0671     3.2515 H       
  43 H43            1.2988   -12.0677     2.2042 H       
@<TRIPOS>BOND
   1    1    2 ar
   2    1    6 ar
   3    1   28 1
   4    2    3 ar
   5    3    4 ar
   6    3    7 1
   7    4    5 ar
   8    4   29 1
   9    5    6 ar
  10    5   30 1
  11    7    8 2
  12    7    9 am
  13    9   10 1
  14    9   31 1
  15   10   11 ar
  16   10   15 ar
  17   11   12 ar
  18   11   32 1
  19   12   13 ar
  20   12   27 1
  21   13   14 ar
  22   13   23 1
  23   14   15 ar
  24   14   33 1
  25   15   34 1
  26   16   17 1
  27   16   21 1
  28   16   24 1
  29   16   35 1
  30   17   18 1
  31   17   36 1
  32   17   37 1
  33   18   19 1
  34   18   38 1
  35   18   39 1
  36   19   20 1
  37   19   40 1
  38   19   41 1
  39   20   21 1
  40   20   42 1
  41   20   43 1
  42   21   22 am
  43   22   23 am
  44   22   25 2
  45   23   24 am
  46   24   26 2

#	End of record

