#	Name: ASD01140639
#	Creating user name:	WinNT
#	Creation time:	15. 06. 2019 19:01

#	Modifying user name:	WinNT
#	Modification time:	15. 06. 2019 19:01

#	Program:	/corina/corina34_cracker 3.40 0067  02.08.2006

@<TRIPOS>MOLECULE
ASD01140639
  41   43    0    0    0
SMALL
NO_CHARGES


@<TRIPOS>ATOM
   1 C1             0.0076     1.3242    -0.1896 C.2     
   2 C2             0.0398    -0.0342    -0.1316 C.2     
   3 C3             1.2711    -0.6958     0.0220 C.2     
   4 C4             2.4181     0.0129     0.1117 C.2     
   5 C5             1.2128     2.0496    -0.0946 C.2     
   6 N6             1.4713     3.3492    -0.1206 N.2     
   7 N7             2.3984     1.3781     0.0552 N.pl3   
   8 C8             3.3899     2.3165     0.1197 C.2     
   9 C9             2.7940     3.5367     0.0079 C.2     
  10 C10            3.4885     4.8481     0.0258 C.ar    
  11 C11            4.6847     5.0146    -0.6693 C.ar    
  12 C12            5.3281     6.2353    -0.6507 C.ar    
  13 C13            4.7871     7.2954     0.0576 C.ar    
  14 C14            3.5965     7.1352     0.7514 C.ar    
  15 C15            2.9432     5.9175     0.7329 C.ar    
  16 C16            4.8645     2.0516     0.2824 C.3     
  17 N17            5.4588     1.7769    -1.0281 N.am    
  18 C18            6.7761     1.5102    -1.1281 C.2     
  19 C19            7.3875     1.2277    -2.4762 C.3     
  20 O20            7.4695     1.4977    -0.1331 O.2     
  21 F21            1.3074    -2.0450     0.0804 F       
  22 F22            5.4208     8.4884     0.0733 F       
  23 C23            7.1846     2.4366    -3.3918 C.3     
  24 F24            3.0724     8.1719     1.4410 F       
  25 C25            8.8846     0.9587    -2.3110 C.3     
  26 H26           -0.9322     1.8422    -0.3119 H       
  27 H27           -0.8760    -0.6022    -0.2029 H       
  28 H28            3.3589    -0.5043     0.2295 H       
  29 H29            5.1081     4.1889    -1.2219 H       
  30 H30            6.2554     6.3641    -1.1892 H       
  31 H31            2.0138     5.7939     1.2690 H       
  32 H32            5.3442     2.9256     0.7230 H       
  33 H33            5.0090     1.1903     0.9347 H       
  34 H34            4.9042     1.7869    -1.8239 H       
  35 H35            6.9078     0.3537    -2.9167 H       
  36 H36            7.6268     2.2322    -4.3668 H       
  37 H37            6.1180     2.6282    -3.5095 H       
  38 H38            7.6643     3.3106    -2.9512 H       
  39 H39            9.0292     0.0974    -1.6587 H       
  40 H40            9.3268     0.7543    -3.2861 H       
  41 H41            9.3643     1.8327    -1.8705 H       
@<TRIPOS>BOND
   1    1    2 2
   2    1    5 1
   3    1   26 1
   4    2    3 1
   5    2   27 1
   6    3    4 2
   7    3   21 1
   8    4    7 1
   9    4   28 1
  10    5    7 1
  11    5    6 2
  12    6    9 1
  13    7    8 1
  14    8    9 2
  15    8   16 1
  16    9   10 1
  17   10   11 ar
  18   10   15 ar
  19   11   12 ar
  20   11   29 1
  21   12   13 ar
  22   12   30 1
  23   13   14 ar
  24   13   22 1
  25   14   15 ar
  26   14   24 1
  27   15   31 1
  28   16   17 1
  29   16   32 1
  30   16   33 1
  31   17   18 am
  32   17   34 1
  33   18   19 1
  34   18   20 2
  35   19   23 1
  36   19   25 1
  37   19   35 1
  38   23   36 1
  39   23   37 1
  40   23   38 1
  41   25   39 1
  42   25   40 1
  43   25   41 1

#	End of record

