#	Name: ASD01903107
#	Creating user name:	WinNT
#	Creation time:	15. 06. 2019 19:54

#	Modifying user name:	WinNT
#	Modification time:	15. 06. 2019 19:54

#	Program:	/corina/corina34_cracker 3.40 0067  02.08.2006

@<TRIPOS>MOLECULE
ASD01903107
  30   32    0    0    0
SMALL
NO_CHARGES


@<TRIPOS>ATOM
   1 C1            -0.0039     1.3775     0.0995 C.ar    
   2 C2            -0.0142     0.0074    -0.1403 C.ar    
   3 N3             1.0897    -0.6227    -0.5098 N.ar    
   4 C4             2.2388     0.0236    -0.6641 C.ar    
   5 C5             2.3166     1.3955    -0.4397 C.ar    
   6 C6             1.1781     2.0834    -0.0520 C.ar    
   7 C7             3.4515    -0.7229    -1.0790 C.2     
   8 N8            -1.1971    -0.7082     0.0102 N.pl3   
   9 C9            -1.1902    -2.1027    -0.1030 C.ar    
  10 C10           -2.3014    -2.7659    -0.6127 C.ar    
  11 C11           -2.2915    -4.1442    -0.7238 C.ar    
  12 C12           -1.1787    -4.8632    -0.3284 C.ar    
  13 C13           -0.0707    -4.2060     0.1800 C.ar    
  14 C14           -0.0721    -2.8267     0.2879 C.ar    
  15 F15           -3.3895    -2.0642    -0.9985 F       
  16 F16            1.0147    -4.9119     0.5658 F       
  17 C17            4.7554    -0.1996    -1.1875 C.2     
  18 N18            5.5470    -1.1620    -1.5793 N.2     
  19 N19            4.7875    -2.3277    -1.7354 N.pl3   
  20 C20            3.5091    -2.0437    -1.4198 C.2     
  21 H21           -0.9090     1.8863     0.3964 H       
  22 H22            3.2536     1.9174    -0.5661 H       
  23 H23            1.2116     3.1478     0.1280 H       
  24 H24           -2.0269    -0.2406     0.1935 H       
  25 H25           -3.1541    -4.6596    -1.1196 H       
  26 H26           -1.1736    -5.9397    -0.4158 H       
  27 H27            0.7921    -2.3146     0.6844 H       
  28 H28            5.0489     0.8193    -0.9824 H       
  29 H29            5.1246    -3.1922    -2.0181 H       
  30 H30            2.6787    -2.7340    -1.4397 H       
@<TRIPOS>BOND
   1    1    2 ar
   2    1    6 ar
   3    1   21 1
   4    2    3 ar
   5    2    8 1
   6    3    4 ar
   7    4    5 ar
   8    4    7 1
   9    5    6 ar
  10    5   22 1
  11    6   23 1
  12    7   17 1
  13    7   20 2
  14    8    9 1
  15    8   24 1
  16    9   10 ar
  17    9   14 ar
  18   10   11 ar
  19   10   15 1
  20   11   12 ar
  21   11   25 1
  22   12   13 ar
  23   12   26 1
  24   13   14 ar
  25   13   16 1
  26   14   27 1
  27   17   18 2
  28   17   28 1
  29   18   19 1
  30   19   20 1
  31   19   29 1
  32   20   30 1

#	End of record

