#	Name: ASD04880439
#	Creating user name:	WinNT
#	Creation time:	15. 06. 2019 20:53

#	Modifying user name:	WinNT
#	Modification time:	15. 06. 2019 20:53

#	Program:	/corina/corina34_cracker 3.40 0067  02.08.2006

@<TRIPOS>MOLECULE
ASD04880439
  43   45    0    0    0
SMALL
NO_CHARGES


@<TRIPOS>ATOM
   1 C1            -0.0050     1.3602     0.3068 C.ar    
   2 C2             0.0102    -0.0230     0.2729 C.ar    
   3 C3            -1.1743    -0.7280     0.2245 C.ar    
   4 C4            -2.3913    -0.0423     0.2097 C.ar    
   5 C5            -2.3990     1.3542     0.2441 C.ar    
   6 C6            -1.2069     2.0460     0.2977 C.ar    
   7 C7            -3.6619    -0.7891     0.1575 C.2     
   8 N8            -3.7689    -2.0724     0.1229 N.2     
   9 N9            -5.0832    -2.5330     0.0775 N.am    
  10 C10           -5.9931    -1.3765     0.0826 C.3     
  11 C11           -5.0397    -0.1666     0.1430 C.3     
  12 C12           -5.4596    -3.8265     0.0350 C.2     
  13 C13           -4.4401    -4.8890    -0.0930 C.ar    
  14 O14           -6.6378    -4.1193     0.1018 O.2     
  15 C15           -3.1060    -4.5536    -0.3140 C.ar    
  16 C16           -2.1514    -5.5614    -0.4335 C.ar    
  17 C17           -2.5370    -6.8999    -0.3310 C.ar    
  18 C18           -3.8611    -7.2256    -0.1123 C.ar    
  19 C19           -4.8112    -6.2319     0.0132 C.ar    
  20 S20            1.5131     2.2525     0.3691 S.o2    
  21 C21            1.9495     2.5253    -1.3703 C.3     
  22 O22            1.1719     3.4812     0.9962 O.2     
  23 C23           -0.7334    -5.2147    -0.6686 C.2     
  24 N24            0.1888    -6.1908    -0.7839 N.am    
  25 O25            2.4260     1.3487     0.9765 O.2     
  26 O26           -0.3994    -4.0494    -0.7580 O.2     
  27 H27            0.9518    -0.5518     0.2840 H       
  28 H28           -1.1610    -1.8076     0.1977 H       
  29 H29           -3.3362     1.8908     0.2330 H       
  30 H30           -1.2113     3.1256     0.3244 H       
  31 H31           -6.5898    -1.3538    -0.8293 H       
  32 H32           -6.6361    -1.3983     0.9625 H       
  33 H33           -5.2130     0.4118     1.0505 H       
  34 H34           -5.1613     0.4604    -0.7403 H       
  35 H35           -2.8132    -3.5170    -0.3928 H       
  36 H36           -1.7979    -7.6821    -0.4235 H       
  37 H37           -4.1539    -8.2622    -0.0343 H       
  38 H38           -5.8450    -6.4934     0.1845 H       
  39 H39            1.1605     3.0982    -1.8574 H       
  40 H40            2.8876     3.0775    -1.4273 H       
  41 H41            2.0628     1.5640    -1.8715 H       
  42 H42           -0.0778    -7.1207    -0.7127 H       
  43 H43            1.1190    -5.9634    -0.9382 H       
@<TRIPOS>BOND
   1    1    2 ar
   2    1   20 1
   3    1    6 ar
   4    2    3 ar
   5    2   27 1
   6    3    4 ar
   7    3   28 1
   8    4    5 ar
   9    4    7 1
  10    5    6 ar
  11    5   29 1
  12    6   30 1
  13    7    8 2
  14    7   11 1
  15    8    9 1
  16    9   10 1
  17    9   12 am
  18   10   11 1
  19   10   31 1
  20   10   32 1
  21   11   33 1
  22   11   34 1
  23   12   13 1
  24   12   14 2
  25   13   15 ar
  26   13   19 ar
  27   15   16 ar
  28   15   35 1
  29   16   17 ar
  30   16   23 1
  31   17   18 ar
  32   17   36 1
  33   18   19 ar
  34   18   37 1
  35   19   38 1
  36   20   21 1
  37   20   22 2
  38   20   25 2
  39   21   39 1
  40   21   40 1
  41   21   41 1
  42   23   24 am
  43   23   26 2
  44   24   42 1
  45   24   43 1

#	End of record

