#	Name: ASD03090960
#	Creating user name:	WinNT
#	Creation time:	15. 06. 2019 20:29

#	Modifying user name:	WinNT
#	Modification time:	15. 06. 2019 20:29

#	Program:	/corina/corina34_cracker 3.40 0067  02.08.2006

@<TRIPOS>MOLECULE
ASD03090960
  49   51    0    0    0
SMALL
NO_CHARGES


@<TRIPOS>ATOM
   1 N1            -0.0149     1.3421     0.1047 N.am    
   2 C2             0.0030    -0.0051     0.0718 C.2     
   3 O3            -1.0442    -0.6288     0.0747 O.2     
   4 N4             1.1687    -0.6570     0.0360 N.2     
   5 S5            -0.1729    -3.0447     0.0007 S.3     
   6 C6             1.1864    -1.9875     0.0035 C.2     
   7 N7             2.2793    -2.7909    -0.0347 N.pl3   
   8 C8             2.0560    -4.1338    -0.0638 C.2     
   9 C9             0.7906    -4.5309    -0.0520 C.2     
  10 O10            7.3995    -0.6836    -0.0827 O.3     
  11 C11            8.4608    -1.5246     0.3820 C.3     
  12 C12            8.2947    -2.9077    -0.2621 C.3     
  13 O13            7.0209    -3.4330     0.1269 O.3     
  14 C14            5.9571    -2.5888     0.0357 C.ar    
  15 C15            6.1456    -1.2151    -0.0670 C.ar    
  16 C16            4.6732    -3.1108     0.0454 C.ar    
  17 C17            3.5781    -2.2627    -0.0443 C.ar    
  18 C18            3.7693    -0.8916    -0.1440 C.ar    
  19 C19            5.0490    -0.3708    -0.1552 C.ar    
  20 F20            8.3509    -2.7894    -1.6549 F       
  21 F21            9.3119    -3.7598     0.1812 F       
  22 F22            9.6936    -0.9767     0.0118 F       
  23 F23            8.3948    -1.6417     1.7746 F       
  24 C24            0.2795    -5.9484    -0.0784 C.3     
  25 C25            1.2438     2.0918     0.1012 C.3     
  26 C26            1.6415     2.3764    -1.2872 C.1     
  27 C27            1.9587     2.6034    -2.3945 C.1     
  28 C28            2.3564     2.8880    -3.7829 C.3     
  29 C29           -1.2932     2.0571     0.1378 C.3     
  30 C30           -1.7041     2.2629     1.5363 C.1     
  31 C31           -2.0319     2.4271     2.6516 C.1     
  32 C32           -2.4428     2.6329     4.0500 C.3     
  33 H33            2.8708    -4.8420    -0.0949 H       
  34 H34            4.5248    -4.1777     0.1237 H       
  35 H35            2.9174    -0.2314    -0.2128 H       
  36 H36            5.1956     0.6964    -0.2325 H       
  37 H37           -0.8103    -5.9421    -0.0605 H       
  38 H38            0.6251    -6.4423    -0.9865 H       
  39 H39            0.6541    -6.4860     0.7927 H       
  40 H40            1.1096     3.0296     0.6402 H       
  41 H41            2.0199     1.5009     0.5876 H       
  42 H42            3.2929     3.4457    -3.7855 H       
  43 H43            2.4905     1.9501    -4.3220 H       
  44 H44            1.5802     3.4788    -4.2693 H       
  45 H45           -1.1819     3.0234    -0.3541 H       
  46 H46           -2.0512     1.4704    -0.3810 H       
  47 H47           -3.3939     3.1648     4.0746 H       
  48 H48           -2.5541     1.6666     4.5419 H       
  49 H49           -1.6848     3.2196     4.5688 H       
@<TRIPOS>BOND
   1    1    2 am
   2    1   25 1
   3    1   29 1
   4    2    3 2
   5    2    4 1
   6    4    6 2
   7    5    6 1
   8    5    9 1
   9    6    7 1
  10    7    8 1
  11    7   17 1
  12    8    9 2
  13    8   33 1
  14    9   24 1
  15   10   11 1
  16   10   15 1
  17   11   12 1
  18   11   22 1
  19   11   23 1
  20   12   13 1
  21   12   20 1
  22   12   21 1
  23   13   14 1
  24   14   15 ar
  25   14   16 ar
  26   15   19 ar
  27   16   17 ar
  28   16   34 1
  29   17   18 ar
  30   18   19 ar
  31   18   35 1
  32   19   36 1
  33   24   37 1
  34   24   38 1
  35   24   39 1
  36   25   26 1
  37   25   40 1
  38   25   41 1
  39   26   27 3
  40   27   28 1
  41   28   42 1
  42   28   43 1
  43   28   44 1
  44   29   30 1
  45   29   45 1
  46   29   46 1
  47   30   31 3
  48   31   32 1
  49   32   47 1
  50   32   48 1
  51   32   49 1

#	End of record

