#	Name: ASD09740559
#	Creating user name:	WinNT
#	Creation time:	15. 06. 2019 21:23

#	Modifying user name:	WinNT
#	Modification time:	15. 06. 2019 21:23

#	Program:	/corina/corina34_cracker 3.40 0067  02.08.2006

@<TRIPOS>MOLECULE
ASD09740559
  70   74    0    0    0
SMALL
NO_CHARGES


@<TRIPOS>ATOM
   1 N1            -0.0945     1.3694     0.7160 N.2     
   2 C2            -0.1044     0.0822     0.9576 C.2     
   3 C3             1.0398     1.9947     0.8638 C.2     
   4 S4             2.2743     0.8453     1.3714 S.3     
   5 C5             1.0786    -0.4492     1.3361 C.2     
   6 C6             1.2560     3.4391     0.6400 C.ar    
   7 C7             0.1958     4.2479     0.2376 C.ar    
   8 C8             2.5234     3.9952     0.8378 C.ar    
   9 C9             2.7306     5.3420     0.6310 C.ar    
  10 C10            1.6829     6.1562     0.2255 C.ar    
  11 C11            0.4055     5.6099     0.0285 C.ar    
  12 O12            1.8923     7.4813     0.0242 O.3     
  13 C13            3.2384     7.9489     0.1309 C.3     
  14 C14            3.4014     9.2268    -0.6946 C.3     
  15 C15            3.5610     8.2443     1.5971 C.3     
  16 C16           -0.6776     6.4478    -0.3905 C.1     
  17 N17           -1.5368     7.1124    -0.7230 N.1     
  18 C18            1.3269    -1.8689     1.6634 C.ar    
  19 C19            2.3991    -2.5457     1.0748 C.ar    
  20 C20            2.6255    -3.8710     1.3845 C.ar    
  21 C21            1.7904    -4.5252     2.2769 C.ar    
  22 C22            0.7284    -3.8603     2.8615 C.ar    
  23 C23            0.4950    -2.5338     2.5646 C.ar    
  24 C24            3.4388    -2.0649     0.0855 C.3     
  25 C25            4.5769    -3.1050     0.1588 C.3     
  26 C26            3.8340    -4.3752     0.6246 C.3     
  27 N27            4.6920    -5.1719     1.5050 N.am    
  28 C28            4.4884    -6.4989     1.6239 C.2     
  29 N29            5.2778    -7.2319     2.4339 N.am    
  30 O30            3.5925    -7.0347     1.0006 O.2     
  31 C31            6.3918    -6.7147     3.2420 C.3     
  32 C32            7.0168    -7.9157     3.9826 C.3     
  33 C33            6.5797    -9.1251     3.1145 C.3     
  34 C34            5.1632    -8.6840     2.6612 C.3     
  35 N35            6.5143   -10.3534     3.9175 N.3     
  36 C36            6.1004   -11.4984     3.0955 C.3     
  37 C37            7.7982   -10.6180     4.5804 C.3     
  38 H38           -0.9991    -0.5148     0.8611 H       
  39 H39           -0.7849     3.8212     0.0878 H       
  40 H40            3.3430     3.3671     1.1542 H       
  41 H41            3.7121     5.7652     0.7856 H       
  42 H42            3.9193     7.1848    -0.2441 H       
  43 H43            2.7205     9.9909    -0.3196 H       
  44 H44            4.4282     9.5834    -0.6132 H       
  45 H45            3.1716     9.0163    -1.7391 H       
  46 H46            3.4449     7.3340     2.1852 H       
  47 H47            4.5878     8.6010     1.6785 H       
  48 H48            2.8801     9.0084     1.9721 H       
  49 H49            1.9706    -5.5626     2.5172 H       
  50 H50            0.0835    -4.3792     3.5552 H       
  51 H51           -0.3343    -2.0141     3.0213 H       
  52 H52            3.0187    -2.0340    -0.9198 H       
  53 H53            3.8073    -1.0801     0.3728 H       
  54 H54            5.0268    -3.2570    -0.8223 H       
  55 H55            5.3288    -2.8060     0.8891 H       
  56 H56            3.5202    -4.9667    -0.2355 H       
  57 H57            5.4068    -4.7444     2.0023 H       
  58 H58            7.1356    -6.2508     2.5941 H       
  59 H59            6.0200    -5.9870     3.9633 H       
  60 H60            8.1033    -7.8310     4.0068 H       
  61 H61            6.6129    -7.9992     4.9916 H       
  62 H62            7.2445    -9.2535     2.2603 H       
  63 H63            4.4323    -8.8946     3.4419 H       
  64 H64            4.8868    -9.1888     1.7355 H       
  65 H65            6.8192   -11.6457     2.2894 H       
  66 H66            6.0601   -12.3945     3.7147 H       
  67 H67            5.1147   -11.3045     2.6725 H       
  68 H68            8.0469    -9.7841     5.2368 H       
  69 H69            7.7220   -11.5328     5.1681 H       
  70 H70            8.5785   -10.7334     3.8281 H       
@<TRIPOS>BOND
   1    1    2 1
   2    1    3 2
   3    2    5 2
   4    2   38 1
   5    3    4 1
   6    3    6 1
   7    4    5 1
   8    5   18 1
   9    6    7 ar
  10    6    8 ar
  11    7   11 ar
  12    7   39 1
  13    8    9 ar
  14    8   40 1
  15    9   10 ar
  16    9   41 1
  17   10   11 ar
  18   10   12 1
  19   11   16 1
  20   12   13 1
  21   13   14 1
  22   13   15 1
  23   13   42 1
  24   14   43 1
  25   14   44 1
  26   14   45 1
  27   15   46 1
  28   15   47 1
  29   15   48 1
  30   16   17 3
  31   18   19 ar
  32   18   23 ar
  33   19   20 ar
  34   19   24 1
  35   20   21 ar
  36   20   26 1
  37   21   22 ar
  38   21   49 1
  39   22   23 ar
  40   22   50 1
  41   23   51 1
  42   24   25 1
  43   24   52 1
  44   24   53 1
  45   25   26 1
  46   25   54 1
  47   25   55 1
  48   26   27 1
  49   26   56 1
  50   27   28 am
  51   27   57 1
  52   28   29 am
  53   28   30 2
  54   29   31 1
  55   29   34 1
  56   31   32 1
  57   31   58 1
  58   31   59 1
  59   32   33 1
  60   32   60 1
  61   32   61 1
  62   33   34 1
  63   33   35 1
  64   33   62 1
  65   34   63 1
  66   34   64 1
  67   35   36 1
  68   35   37 1
  69   36   65 1
  70   36   66 1
  71   36   67 1
  72   37   68 1
  73   37   69 1
  74   37   70 1

#	End of record

