#	Name: ASD03082231
#	Creating user name:	WinNT
#	Creation time:	15. 06. 2019 20:27

#	Modifying user name:	WinNT
#	Modification time:	15. 06. 2019 20:27

#	Program:	/corina/corina34_cracker 3.40 0067  02.08.2006

@<TRIPOS>MOLECULE
ASD03082231
  39   41    0    0    0
SMALL
NO_CHARGES


@<TRIPOS>ATOM
   1 N1            -0.4455     1.1203    -0.0131 N.am    
   2 N2            -0.1673    -0.2563    -0.0157 N.2     
   3 C3             1.1389    -0.3837    -0.0210 C.2     
   4 N4             1.7003     0.8281    -0.0218 N.2     
   5 C5             0.7639     1.7531    -0.0171 C.2     
   6 N6             1.8315    -1.5936    -0.0247 N.pl3   
   7 C7             1.1329    -2.7997     0.0940 C.ar    
   8 C8             1.6770    -3.9717    -0.4159 C.ar    
   9 C9             0.9858    -5.1613    -0.2972 C.ar    
  10 C10           -0.2491    -5.1863     0.3292 C.ar    
  11 C11           -0.7935    -4.0193     0.8378 C.ar    
  12 C12           -0.1029    -2.8282     0.7268 C.ar    
  13 C13            1.5755    -6.4331    -0.8502 C.3     
  14 F14            2.8178    -6.1570    -1.4313 F       
  15 F15            1.7406    -7.3593     0.1852 F       
  16 F16            0.7156    -6.9636    -1.8178 F       
  17 C17            2.0235     5.1835     0.8721 C.ar    
  18 C18            1.8487     3.8138     0.9080 C.ar    
  19 C19            0.9828     3.2160    -0.0163 C.ar    
  20 C20            0.3312     4.0412    -0.9392 C.ar    
  21 C21            0.5649     5.4008    -0.9032 C.ar    
  22 N22            1.3886     5.9239    -0.0158 N.ar    
  23 C23           -1.6622     1.7000    -0.0126 C.2     
  24 N24           -2.7704     0.9410    -0.1238 N.am    
  25 F25           -0.9237    -6.3512     0.4439 F       
  26 C26           -4.0929     1.5712    -0.1232 C.3     
  27 O27           -1.7601     2.9070     0.0882 O.2     
  28 Cl28           2.6897     2.8483     2.0803 Cl      
  29 H29            2.7977    -1.5991    -0.1095 H       
  30 H30            2.6396    -3.9525    -0.9051 H       
  31 H31           -1.7569    -4.0410     1.3253 H       
  32 H32           -0.5257    -1.9189     1.1279 H       
  33 H33            2.6855     5.6550     1.5833 H       
  34 H34           -0.3445     3.6204    -1.6692 H       
  35 H35            0.0666     6.0456    -1.6120 H       
  36 H36           -2.6923    -0.0225    -0.2042 H       
  37 H37           -4.1647     2.2661    -0.9599 H       
  38 H38           -4.8610     0.8040    -0.2213 H       
  39 H39           -4.2372     2.1123     0.8119 H       
@<TRIPOS>BOND
   1    1    2 1
   2    1    5 1
   3    1   23 am
   4    2    3 2
   5    3    4 1
   6    3    6 1
   7    4    5 2
   8    5   19 1
   9    6    7 1
  10    6   29 1
  11    7    8 ar
  12    7   12 ar
  13    8    9 ar
  14    8   30 1
  15    9   10 ar
  16    9   13 1
  17   10   11 ar
  18   10   25 1
  19   11   12 ar
  20   11   31 1
  21   12   32 1
  22   13   14 1
  23   13   15 1
  24   13   16 1
  25   17   18 ar
  26   17   22 ar
  27   17   33 1
  28   18   19 ar
  29   18   28 1
  30   19   20 ar
  31   20   21 ar
  32   20   34 1
  33   21   22 ar
  34   21   35 1
  35   23   24 am
  36   23   27 2
  37   24   26 1
  38   24   36 1
  39   26   37 1
  40   26   38 1
  41   26   39 1

#	End of record

