#	Name: ASD01150146
#	Creating user name:	WinNT
#	Creation time:	15. 06. 2019 19:03

#	Modifying user name:	WinNT
#	Modification time:	15. 06. 2019 19:03

#	Program:	/corina/corina34_cracker 3.40 0067  02.08.2006

@<TRIPOS>MOLECULE
ASD01150146
  52   54    0    0    0
SMALL
NO_CHARGES


@<TRIPOS>ATOM
   1 N1            -0.0137     1.4141    -0.0313 N.pl3   
   2 C2             0.0456     0.0348    -0.0370 C.2     
   3 C3            -1.2692    -0.4110     0.0115 C.2     
   4 N4            -2.0528     0.6699     0.0436 N.2     
   5 C5            -1.3168     1.7519     0.0244 C.2     
   6 C6             1.0918    -0.9119    -0.0783 C.2     
   7 N7             0.7907    -2.2272    -0.0697 N.am    
   8 C8            -0.4861    -2.6446    -0.0231 C.2     
   9 N9            -1.5131    -1.7749     0.0177 N.am    
  10 O10            2.2526    -0.5459    -0.1215 O.2     
  11 C11           -2.8905    -2.2714     0.0679 C.3     
  12 O12           -0.7197    -3.8380    -0.0173 O.2     
  13 C13            1.8717    -3.2151    -0.1124 C.3     
  14 C14            2.2956    -3.5568     1.2927 C.ar    
  15 C15            1.6831    -4.5977     1.9654 C.ar    
  16 C16            2.0715    -4.9116     3.2542 C.ar    
  17 C17            3.0736    -4.1839     3.8710 C.ar    
  18 C18            3.6862    -3.1423     3.1973 C.ar    
  19 C19            3.3008    -2.8330     1.9065 C.ar    
  20 Cl20           3.5616    -4.5772     5.4899 Cl      
  21 C21           -1.8469     3.1623     0.0503 C.3     
  22 C22           -3.3729     3.1356    -0.0572 C.3     
  23 C23            1.1245     2.3355    -0.0720 C.3     
  24 C24           -3.3160    -2.4482     1.5268 C.3     
  25 C25           -4.7545    -2.9667     1.5792 C.3     
  26 C26           -1.4398     3.8363     1.3621 C.3     
  27 C27           -1.2663     3.9470    -1.1279 C.3     
  28 H28           -3.5526    -1.5558    -0.4195 H       
  29 H29           -2.9500    -3.2304    -0.4467 H       
  30 H30            1.5207    -4.1162    -0.6154 H       
  31 H31            2.7202    -2.8018    -0.6576 H       
  32 H32            0.9007    -5.1655     1.4839 H       
  33 H33            1.5927    -5.7246     3.7797 H       
  34 H34            4.4685    -2.5739     3.6783 H       
  35 H35            3.7790    -2.0199     1.3805 H       
  36 H36           -3.7865     2.5765     0.7821 H       
  37 H37           -3.7564     4.1557    -0.0386 H       
  38 H38           -3.6630     2.6554    -0.9918 H       
  39 H39            1.4261     2.4951    -1.1072 H       
  40 H40            0.8371     3.2878     0.3736 H       
  41 H41            1.9572     1.9092     0.4874 H       
  42 H42           -2.6539    -3.1638     2.0143 H       
  43 H43           -3.2565    -1.4892     2.0415 H       
  44 H44           -5.4167    -2.2511     1.0918 H       
  45 H45           -4.8140    -3.9257     1.0646 H       
  46 H46           -5.0577    -3.0927     2.6186 H       
  47 H47           -0.3593     3.7655     1.4868 H       
  48 H48           -1.7349     4.8853     1.3385 H       
  49 H49           -1.9351     3.3381     2.1955 H       
  50 H50           -1.5564     3.4669    -2.0625 H       
  51 H51           -1.6498     4.9672    -1.1092 H       
  52 H52           -0.1792     3.9660    -1.0513 H       
@<TRIPOS>BOND
   1    1    2 1
   2    1   23 1
   3    1    5 1
   4    2    3 2
   5    2    6 1
   6    3    4 1
   7    3    9 1
   8    4    5 2
   9    5   21 1
  10    6    7 am
  11    6   10 2
  12    7    8 am
  13    7   13 1
  14    8    9 am
  15    8   12 2
  16    9   11 1
  17   11   24 1
  18   11   28 1
  19   11   29 1
  20   13   14 1
  21   13   30 1
  22   13   31 1
  23   14   15 ar
  24   14   19 ar
  25   15   16 ar
  26   15   32 1
  27   16   17 ar
  28   16   33 1
  29   17   18 ar
  30   17   20 1
  31   18   19 ar
  32   18   34 1
  33   19   35 1
  34   21   22 1
  35   21   26 1
  36   21   27 1
  37   22   36 1
  38   22   37 1
  39   22   38 1
  40   23   39 1
  41   23   40 1
  42   23   41 1
  43   24   25 1
  44   24   42 1
  45   24   43 1
  46   25   44 1
  47   25   45 1
  48   25   46 1
  49   26   47 1
  50   26   48 1
  51   26   49 1
  52   27   50 1
  53   27   51 1
  54   27   52 1

#	End of record

