#	Name: ASD05490122
#	Creating user name:	WinNT
#	Creation time:	15. 06. 2019 21:01

#	Modifying user name:	WinNT
#	Modification time:	15. 06. 2019 21:01

#	Program:	/corina/corina34_cracker 3.40 0067  02.08.2006

@<TRIPOS>MOLECULE
ASD05490122
  75   80    0    0    0
SMALL
NO_CHARGES


@<TRIPOS>ATOM
   1 O1            -2.2645     1.9618     0.1826 O.2     
   2 N2            -0.0850     1.3570    -0.0778 N.am    
   3 O3             4.5986     2.1890    -0.7164 O.3     
   4 N4             3.0511     3.8935    -0.5612 N.ar    
   5 C5             1.8046     4.3372    -0.4104 C.ar    
   6 C6             3.3156     2.5968    -0.5598 C.ar    
   7 N7             2.3683     1.6859    -0.4093 N.ar    
   8 C8             1.0996     2.0491    -0.2529 C.ar    
   9 C9             0.7790     3.4072    -0.2495 C.ar    
  10 N10            1.5325     5.6975    -0.4129 N.pl3   
  11 C11           -1.0919     2.2455     0.0230 C.2     
  12 N12           -0.6011     3.4971    -0.0710 N.am    
  13 C13            5.5884     3.2076    -0.8743 C.3     
  14 C14            6.9651     2.5601    -1.0366 C.3     
  15 C15            8.0088     3.6421    -1.3302 C.3     
  16 C16            9.3938     2.9951    -1.4128 C.3     
  17 C17           -0.2222    -0.1003    -0.0184 C.3     
  18 C18           -0.0847    -0.5600     1.4102 C.ar    
  19 C19           -1.2054    -0.6524     2.2152 C.ar    
  20 C20           -1.0852    -1.0728     3.5245 C.ar    
  21 C21            0.1681    -1.4048     4.0345 C.ar    
  22 C22            1.2940    -1.3102     3.2187 C.ar    
  23 C23            1.1616    -0.8934     1.9099 C.ar    
  24 C24            0.3036    -1.8569     5.4413 C.ar    
  25 O25            9.6733     2.3131    -0.1885 O.3     
  26 C26            8.7573     1.2589     0.1143 C.3     
  27 C27            7.3467     1.8361     0.2583 C.3     
  28 C28            1.1251    -1.1586     6.3242 C.ar    
  29 C29           -0.3943    -2.9777     5.8858 C.ar    
  30 C30           -0.2645    -3.3939     7.1955 C.ar    
  31 C31            0.5566    -2.7005     8.0659 C.ar    
  32 C32            1.2475    -1.5835     7.6314 C.ar    
  33 C33            3.4766    -2.8575     8.7302 C.3     
  34 C34            4.7628    -3.2272     9.4920 C.3     
  35 C35            5.4897    -1.8842     9.7327 C.3     
  36 C36            4.3456    -0.8457     9.6184 C.3     
  37 N37            3.4980    -1.3925     8.5281 N.3     
  38 C38            2.1408    -0.8333     8.5856 C.3     
  39 C39           -2.3072    -1.1721     4.4008 C.3     
  40 F40           -3.4121    -0.6478     3.7213 F       
  41 F41           -2.5473    -2.5138     4.7159 F       
  42 F42           -2.0968    -0.4469     5.5784 F       
  43 H43            2.2538     6.3362    -0.5254 H       
  44 H44            0.6209     6.0099    -0.3023 H       
  45 H45           -1.1181     4.3167    -0.0289 H       
  46 H46            5.3600     3.8021    -1.7589 H       
  47 H47            5.5909     3.8512     0.0053 H       
  48 H48            6.9377     1.8467    -1.8603 H       
  49 H49            7.7754     4.1254    -2.2789 H       
  50 H50            8.0000     4.3832    -0.5310 H       
  51 H51            9.4140     2.2834    -2.2382 H       
  52 H52           10.1460     3.7663    -1.5792 H       
  53 H53           -1.2016    -0.3889    -0.4002 H       
  54 H54            0.5554    -0.5636    -0.6256 H       
  55 H55           -2.1765    -0.3948     1.8188 H       
  56 H56            2.2679    -1.5664     3.6090 H       
  57 H57            2.0334    -0.8197     1.2768 H       
  58 H58            8.7691     0.5245    -0.6910 H       
  59 H59            9.0508     0.7794     1.0481 H       
  60 H60            7.3245     2.5407     1.0896 H       
  61 H61            6.6397     1.0279     0.4456 H       
  62 H62            1.6652    -0.2867     5.9860 H       
  63 H63           -1.0361    -3.5198     5.2070 H       
  64 H64           -0.8054    -4.2625     7.5412 H       
  65 H65            0.6550    -3.0294     9.0899 H       
  66 H66            3.4573    -3.3652     7.7658 H       
  67 H67            2.6029    -3.1385     9.3183 H       
  68 H68            4.5167    -3.6999    10.4429 H       
  69 H69            5.3828    -3.8901     8.8884 H       
  70 H70            5.9350    -1.8595    10.7273 H       
  71 H71            6.2452    -1.7118     8.9662 H       
  72 H72            3.7836    -0.7882    10.5505 H       
  73 H73            4.7402     0.1329     9.3448 H       
  74 H74            2.1694     0.2195     8.3049 H       
  75 H75            1.7512    -0.9287     9.5991 H       
@<TRIPOS>BOND
   1    1   11 2
   2    2   17 1
   3    2    8 1
   4    2   11 am
   5    3   13 1
   6    3    6 1
   7    4    5 ar
   8    4    6 ar
   9    5   10 1
  10    5    9 ar
  11    6    7 ar
  12    7    8 ar
  13    8    9 ar
  14    9   12 1
  15   10   43 1
  16   10   44 1
  17   11   12 am
  18   12   45 1
  19   13   14 1
  20   13   46 1
  21   13   47 1
  22   14   15 1
  23   14   27 1
  24   14   48 1
  25   15   16 1
  26   15   49 1
  27   15   50 1
  28   16   25 1
  29   16   51 1
  30   16   52 1
  31   17   18 1
  32   17   53 1
  33   17   54 1
  34   18   19 ar
  35   18   23 ar
  36   19   20 ar
  37   19   55 1
  38   20   21 ar
  39   20   39 1
  40   21   22 ar
  41   21   24 1
  42   22   23 ar
  43   22   56 1
  44   23   57 1
  45   24   28 ar
  46   24   29 ar
  47   25   26 1
  48   26   27 1
  49   26   58 1
  50   26   59 1
  51   27   60 1
  52   27   61 1
  53   28   32 ar
  54   28   62 1
  55   29   30 ar
  56   29   63 1
  57   30   31 ar
  58   30   64 1
  59   31   32 ar
  60   31   65 1
  61   32   38 1
  62   33   34 1
  63   33   37 1
  64   33   66 1
  65   33   67 1
  66   34   35 1
  67   34   68 1
  68   34   69 1
  69   35   36 1
  70   35   70 1
  71   35   71 1
  72   36   37 1
  73   36   72 1
  74   36   73 1
  75   37   38 1
  76   38   74 1
  77   38   75 1
  78   39   40 1
  79   39   41 1
  80   39   42 1

#	End of record

