#	Name: ASD04220015
#	Creating user name:	WinNT
#	Creation time:	15. 06. 2019 20:48

#	Modifying user name:	WinNT
#	Modification time:	15. 06. 2019 20:48

#	Program:	/corina/corina34_cracker 3.40 0067  02.08.2006

@<TRIPOS>MOLECULE
ASD04220015
  49   49    0    0    0
SMALL
NO_CHARGES


@<TRIPOS>ATOM
   1 C1            -0.0184     1.5028     0.0103 C.2     
   2 C2             0.0021    -0.0041     0.0020 C.3     
   3 C3            -0.7241    -0.5171    -1.2431 C.3     
   4 O4             1.0197     2.1211     0.0037 O.2     
   5 O5            -1.1898     2.1580     0.0194 O.3     
   6 C6            -0.8113    -2.0207    -1.1900 C.ar    
   7 C7            -1.8983    -2.6279    -0.5884 C.ar    
   8 C8            -1.9800    -4.0098    -0.5387 C.ar    
   9 C9            -0.9661    -4.7843    -1.0953 C.ar    
  10 C10            0.1201    -4.1697    -1.6965 C.ar    
  11 C11            0.1926    -2.7897    -1.7476 C.ar    
  12 O12           -1.0416    -6.1413    -1.0487 O.3     
  13 C13            0.0350    -6.8716    -1.6400 C.3     
  14 O14           -3.0481    -4.6085     0.0529 O.3     
  15 C15           -4.0500    -3.7509     0.6031 C.3     
  16 N16            1.3897    -0.4735    -0.0138 N.am    
  17 C17            2.0717    -0.5994     1.1419 C.2     
  18 O18            1.5357    -0.3234     2.1969 O.2     
  19 O19            3.3470    -1.0308     1.1274 O.3     
  20 C20            4.0198    -1.1422     2.4093 C.3     
  21 C21            3.2619    -2.1295     3.2990 C.3     
  22 C22            5.4491    -1.6438     2.1932 C.3     
  23 C23            4.0575     0.2293     3.0863 C.3     
  24 C24           -1.1335     3.6089     0.0270 C.3     
  25 H25           -0.4983    -0.3791     0.8948 H       
  26 H26           -1.7288    -0.0959    -1.2772 H       
  27 H27           -0.1736    -0.2164    -2.1345 H       
  28 H28           -2.6835    -2.0247    -0.1570 H       
  29 H29            0.9080    -4.7683    -2.1290 H       
  30 H30            1.0379    -2.3117    -2.2205 H       
  31 H31            0.9679    -6.6127    -1.1393 H       
  32 H32           -0.1497    -7.9406    -1.5341 H       
  33 H33            0.1080    -6.6185    -2.6977 H       
  34 H34           -4.8436    -4.3548     1.0432 H       
  35 H35           -3.6053    -3.1192     1.3721 H       
  36 H36           -4.4655    -3.1244    -0.1862 H       
  37 H37            1.8177    -0.6938    -0.8559 H       
  38 H38            3.2350    -3.1066     2.8167 H       
  39 H39            3.7670    -2.2131     4.2613 H       
  40 H40            2.2437    -1.7722     3.4529 H       
  41 H41            5.9890    -0.9404     1.5593 H       
  42 H42            5.9541    -1.7274     3.1555 H       
  43 H43            5.4222    -2.6209     1.7109 H       
  44 H44            3.0393     0.5866     3.2402 H       
  45 H45            4.5626     0.1457     4.0486 H       
  46 H46            4.5975     0.9327     2.4524 H       
  47 H47           -0.6102     3.9569    -0.8636 H       
  48 H48           -2.1463     4.0118     0.0340 H       
  49 H49           -0.6017     3.9472     0.9164 H       
@<TRIPOS>BOND
   1    1    2 1
   2    1    4 2
   3    1    5 1
   4    2    3 1
   5    2   16 1
   6    2   25 1
   7    3    6 1
   8    3   26 1
   9    3   27 1
  10    5   24 1
  11    6    7 ar
  12    6   11 ar
  13    7    8 ar
  14    7   28 1
  15    8    9 ar
  16    8   14 1
  17    9   10 ar
  18    9   12 1
  19   10   11 ar
  20   10   29 1
  21   11   30 1
  22   12   13 1
  23   13   31 1
  24   13   32 1
  25   13   33 1
  26   14   15 1
  27   15   34 1
  28   15   35 1
  29   15   36 1
  30   16   17 am
  31   16   37 1
  32   17   18 2
  33   17   19 1
  34   19   20 1
  35   20   21 1
  36   20   23 1
  37   20   22 1
  38   21   38 1
  39   21   39 1
  40   21   40 1
  41   22   41 1
  42   22   42 1
  43   22   43 1
  44   23   44 1
  45   23   45 1
  46   23   46 1
  47   24   47 1
  48   24   48 1
  49   24   49 1

#	End of record

