#	Name: ASD01882199
#	Creating user name:	WinNT
#	Creation time:	15. 06. 2019 19:44

#	Modifying user name:	WinNT
#	Modification time:	15. 06. 2019 19:44

#	Program:	/corina/corina34_cracker 3.40 0067  02.08.2006

@<TRIPOS>MOLECULE
ASD01882199
  37   38    0    0    0
SMALL
NO_CHARGES


@<TRIPOS>ATOM
   1 C1            -0.2714     1.5162     0.2487 C.3     
   2 C2            -0.0963     0.0066     0.0714 C.3     
   3 C3             0.7847    -0.5402     1.1964 C.3     
   4 O4            -1.3750    -0.6297     0.1157 O.3     
   5 C5             0.5569    -0.2706    -1.2581 C.ar    
   6 C6             1.7967     0.2699    -1.5452 C.ar    
   7 C7             2.3957     0.0156    -2.7646 C.ar    
   8 C8             1.7554    -0.7795    -3.6970 C.ar    
   9 C9             0.5165    -1.3205    -3.4095 C.ar    
  10 C10           -0.0808    -1.0697    -2.1881 C.ar    
  11 N11            4.7137     2.8493     0.1643 N.3     
  12 C12            4.6204     1.4973     0.7298 C.3     
  13 C13            3.8945     0.5794    -0.2564 C.3     
  14 C14            2.4945     1.1365    -0.5289 C.3     
  15 C15            2.6182     2.5630    -1.0716 C.3     
  16 C16            3.3811     3.4234    -0.0617 C.3     
  17 H17            0.7079     1.9919     0.3007 H       
  18 H18           -0.8267     1.9195    -0.5981 H       
  19 H19           -0.8201     1.7126     1.1698 H       
  20 H20            0.4347    -0.1526     2.1531 H       
  21 H21            0.7306    -1.6288     1.2037 H       
  22 H22            1.8166    -0.2288     1.0338 H       
  23 H23           -1.9871    -0.3308    -0.5707 H       
  24 H24            3.3638     0.4384    -2.9892 H       
  25 H25            2.2232    -0.9776    -4.6500 H       
  26 H26            0.0162    -1.9413    -4.1380 H       
  27 H27           -1.0472    -1.4956    -1.9621 H       
  28 H28            5.2710     3.4499     0.7532 H       
  29 H29            5.6228     1.1111     0.9150 H       
  30 H30            4.0663     1.5333     1.6677 H       
  31 H31            4.4554     0.5320    -1.1898 H       
  32 H32            3.8116    -0.4202     0.1702 H       
  33 H33            1.9199     1.1467     0.3972 H       
  34 H34            3.1590     2.5468    -2.0178 H       
  35 H35            1.6235     2.9806    -1.2274 H       
  36 H36            2.8328     3.4504     0.8799 H       
  37 H37            3.4834     4.4362    -0.4515 H       
@<TRIPOS>BOND
   1    1    2 1
   2    1   17 1
   3    1   18 1
   4    1   19 1
   5    2    3 1
   6    2    4 1
   7    2    5 1
   8    3   20 1
   9    3   21 1
  10    3   22 1
  11    4   23 1
  12    5    6 ar
  13    5   10 ar
  14    6    7 ar
  15    6   14 1
  16    7    8 ar
  17    7   24 1
  18    8    9 ar
  19    8   25 1
  20    9   10 ar
  21    9   26 1
  22   10   27 1
  23   11   12 1
  24   11   16 1
  25   11   28 1
  26   12   13 1
  27   12   29 1
  28   12   30 1
  29   13   14 1
  30   13   31 1
  31   13   32 1
  32   14   15 1
  33   14   33 1
  34   15   16 1
  35   15   34 1
  36   15   35 1
  37   16   36 1
  38   16   37 1

#	End of record

