#	Name: ASD05730031
#	Creating user name:	WinNT
#	Creation time:	15. 06. 2019 21:02

#	Modifying user name:	WinNT
#	Modification time:	15. 06. 2019 21:02

#	Program:	/corina/corina34_cracker 3.40 0067  02.08.2006

@<TRIPOS>MOLECULE
ASD05730031
  61   64    0    0    0
SMALL
NO_CHARGES


@<TRIPOS>ATOM
   1 C1            -0.0169     1.3950     0.0097 C.ar    
   2 C2             0.0021    -0.0041     0.0020 C.ar    
   3 N3            -1.1439    -0.7363    -0.0616 N.2     
   4 C4            -2.2557    -0.5251     0.5490 C.2     
   5 C5            -2.5469     0.5925     1.4598 C.ar    
   6 C6            -2.0637     1.8770     1.1843 C.ar    
   7 N7            -1.2356     2.0919     0.0812 N.pl3   
   8 C8             1.1709     2.1052     0.0022 C.ar    
   9 C9             2.3833     1.4360     0.0186 C.ar    
  10 C10            2.4113     0.0524     0.0431 C.ar    
  11 C11            1.2314    -0.6684     0.0357 C.ar    
  12 F12            3.5960    -0.5963     0.0743 F       
  13 C13           -3.3160     0.3785     2.6049 C.ar    
  14 C14           -3.6166     1.4358     3.4412 C.ar    
  15 C15           -3.1616     2.7103     3.1474 C.ar    
  16 C16           -2.3879     2.9323     2.0230 C.ar    
  17 Cl17          -4.5695     1.1659     4.8670 Cl      
  18 C18           -1.6279     3.0237    -0.9790 C.3     
  19 N19           -3.2691    -1.4301     0.3291 N.pl3   
  20 C20           -3.0525    -2.5690    -0.5664 C.3     
  21 C21           -2.4276    -3.7457     0.2060 C.3     
  22 C22           -1.1081     4.4236    -0.6457 C.3     
  23 C23           -4.4049    -3.1056    -1.0897 C.3     
  24 C24           -4.1946    -4.6406    -1.0766 C.3     
  25 N25           -3.3889    -4.8626     0.1463 N.am    
  26 C26           -3.5092    -5.8779     1.0245 C.2     
  27 N27           -4.4435    -6.8296     0.8304 N.am    
  28 O28           -2.7747    -5.9353     1.9917 O.2     
  29 C29           -4.5742    -7.9332     1.7849 C.3     
  30 C30           -4.8997    -7.3729     3.1710 C.3     
  31 C31           -5.7002    -8.8662     1.3348 C.3     
  32 C32           -3.2594    -8.7132     1.8459 C.3     
  33 H33            1.1523     3.1849    -0.0169 H       
  34 H34            3.3078     1.9942     0.0119 H       
  35 H35            1.2597    -1.7478     0.0553 H       
  36 H36           -3.6760    -0.6130     2.8366 H       
  37 H37           -3.4119     3.5343     3.7992 H       
  38 H38           -2.0368     3.9285     1.7975 H       
  39 H39           -1.2033     2.6947    -1.9274 H       
  40 H40           -2.7149     3.0487    -1.0568 H       
  41 H41           -4.1267    -1.3137     0.7672 H       
  42 H42           -2.4110    -2.2790    -1.3985 H       
  43 H43           -1.4878    -4.0394    -0.2616 H       
  44 H44           -2.2554    -3.4591     1.2434 H       
  45 H45           -1.5328     4.7526     0.3027 H       
  46 H46           -0.0212     4.3985    -0.5679 H       
  47 H47           -1.4000     5.1169    -1.4346 H       
  48 H48           -5.2176    -2.8216    -0.4211 H       
  49 H49           -4.5951    -2.7507    -2.1026 H       
  50 H50           -5.1508    -5.1592    -1.0066 H       
  51 H51           -3.6459    -4.9612    -1.9621 H       
  52 H52           -5.0295    -6.7838     0.0587 H       
  53 H53           -5.8364    -6.8173     3.1275 H       
  54 H54           -4.9969    -8.1941     3.8811 H       
  55 H55           -4.0975    -6.7083     3.4917 H       
  56 H56           -5.4684    -9.2654     0.3473 H       
  57 H57           -5.7974    -9.6874     2.0449 H       
  58 H58           -6.6369    -8.3106     1.2913 H       
  59 H59           -2.4572    -8.0485     2.1667 H       
  60 H60           -3.3566    -9.5343     2.5561 H       
  61 H61           -3.0275    -9.1123     0.8585 H       
@<TRIPOS>BOND
   1    1    2 ar
   2    1    8 ar
   3    1    7 1
   4    2    3 1
   5    2   11 ar
   6    3    4 2
   7    4    5 1
   8    4   19 1
   9    5    6 ar
  10    5   13 ar
  11    6    7 1
  12    6   16 ar
  13    7   18 1
  14    8    9 ar
  15    8   33 1
  16    9   10 ar
  17    9   34 1
  18   10   11 ar
  19   10   12 1
  20   11   35 1
  21   13   14 ar
  22   13   36 1
  23   14   15 ar
  24   14   17 1
  25   15   16 ar
  26   15   37 1
  27   16   38 1
  28   18   22 1
  29   18   39 1
  30   18   40 1
  31   19   20 1
  32   19   41 1
  33   20   21 1
  34   20   23 1
  35   20   42 1
  36   21   25 1
  37   21   43 1
  38   21   44 1
  39   22   45 1
  40   22   46 1
  41   22   47 1
  42   23   24 1
  43   23   48 1
  44   23   49 1
  45   24   25 1
  46   24   50 1
  47   24   51 1
  48   25   26 am
  49   26   27 am
  50   26   28 2
  51   27   29 1
  52   27   52 1
  53   29   30 1
  54   29   31 1
  55   29   32 1
  56   30   53 1
  57   30   54 1
  58   30   55 1
  59   31   56 1
  60   31   57 1
  61   31   58 1
  62   32   59 1
  63   32   60 1
  64   32   61 1

#	End of record

