#	Name: ASD01940283
#	Creating user name:	WinNT
#	Creation time:	15. 06. 2019 20:12

#	Modifying user name:	WinNT
#	Modification time:	15. 06. 2019 20:12

#	Program:	/corina/corina34_cracker 3.40 0067  02.08.2006

@<TRIPOS>MOLECULE
ASD01940283
  36   37    0    0    0
SMALL
NO_CHARGES


@<TRIPOS>ATOM
   1 C1            -0.3739     1.5488    -0.3954 C.ar    
   2 C2            -0.0208     1.1735     0.9053 C.ar    
   3 C3            -1.0013     0.9414     1.8470 C.ar    
   4 C4            -2.3421     1.0786     1.5118 C.ar    
   5 C5            -2.7077     1.4507     0.2255 C.ar    
   6 C6            -1.7270     1.6929    -0.7340 C.ar    
   7 N7            -2.0896     2.0674    -2.0272 N.am    
   8 S8            -1.8873     1.0076    -3.2835 S.o2    
   9 O9            -2.1612     1.7821    -4.4429 O.2     
  10 O10           -0.6004     0.4462    -3.0647 O.2     
  11 F11           -0.6559     0.5783     3.1016 F       
  12 F12           -3.2948     0.8483     2.4416 F       
  13 N13           -4.0628     1.5869    -0.1068 N.pl3   
  14 C14           -4.8633     0.4506    -0.2575 C.ar    
  15 C15           -6.2292     0.5850    -0.4863 C.ar    
  16 C16           -4.2964    -0.8145    -0.1850 C.ar    
  17 C17           -5.0902    -1.9357    -0.3343 C.ar    
  18 C18           -6.4478    -1.7998    -0.5563 C.ar    
  19 C19           -7.0168    -0.5412    -0.6347 C.ar    
  20 F20           -6.7848     1.8141    -0.5629 F       
  21 C21           -7.3092    -3.0255    -0.7190 C.3     
  22 C22           -3.1780    -0.2423    -3.0335 C.3     
  23 C23            0.6422     1.7905    -1.3750 C.1     
  24 N24            1.4483     1.9822    -2.1522 N.1     
  25 H25            1.0202     1.0652     1.1720 H       
  26 H26           -2.4602     2.9487    -2.1910 H       
  27 H27           -4.4450     2.4696    -0.2321 H       
  28 H28           -3.2357    -0.9224    -0.0123 H       
  29 H29           -4.6491    -2.9199    -0.2778 H       
  30 H30           -8.0778    -0.4387    -0.8082 H       
  31 H31           -7.6844    -3.3379     0.2556 H       
  32 H32           -8.1489    -2.7951    -1.3747 H       
  33 H33           -6.7175    -3.8301    -1.1555 H       
  34 H34           -4.1450     0.2497    -2.9292 H       
  35 H35           -3.2032    -0.9151    -3.8907 H       
  36 H36           -2.9613    -0.8127    -2.1302 H       
@<TRIPOS>BOND
   1    1    2 ar
   2    1   23 1
   3    1    6 ar
   4    2    3 ar
   5    2   25 1
   6    3    4 ar
   7    3   11 1
   8    4    5 ar
   9    4   12 1
  10    5    6 ar
  11    5   13 1
  12    6    7 1
  13    7    8 am
  14    7   26 1
  15    8    9 2
  16    8   10 2
  17    8   22 1
  18   13   14 1
  19   13   27 1
  20   14   15 ar
  21   14   16 ar
  22   15   20 1
  23   15   19 ar
  24   16   17 ar
  25   16   28 1
  26   17   18 ar
  27   17   29 1
  28   18   19 ar
  29   18   21 1
  30   19   30 1
  31   21   31 1
  32   21   32 1
  33   21   33 1
  34   22   34 1
  35   22   35 1
  36   22   36 1
  37   23   24 3

#	End of record

