#	Name: ASD05430290
#	Creating user name:	WinNT
#	Creation time:	15. 06. 2019 21:00

#	Modifying user name:	WinNT
#	Modification time:	15. 06. 2019 21:00

#	Program:	/corina/corina34_cracker 3.40 0067  02.08.2006

@<TRIPOS>MOLECULE
ASD05430290
  62   67    0    0    0
SMALL
NO_CHARGES


@<TRIPOS>ATOM
   1 C1             0.0602     1.1734    -0.4509 C.ar    
   2 C2             0.0045     0.0189     0.3217 C.ar    
   3 C3             1.1400    -0.4360     0.9823 C.ar    
   4 C4             2.3259     0.2560     0.8739 C.ar    
   5 C5             2.3867     1.4179     0.0978 C.ar    
   6 C6             1.2418     1.8718    -0.5650 C.ar    
   7 C7             2.3505     4.2805     0.0535 C.3     
   8 C8             3.6373     3.5037    -0.1149 C.2     
   9 C9             3.6518     2.1612    -0.0206 C.2     
  10 C10            2.6727     5.7254     0.4453 C.3     
  11 C11            4.0008     5.9417     1.1800 C.3     
  12 N12            5.0867     5.4207     0.3496 N.pl3   
  13 C13            4.8742     4.2569    -0.3854 C.2     
  14 N14            5.7271     3.8727    -1.2794 N.2     
  15 C15            7.3527     5.3942     1.2227 C.ar    
  16 C16            8.2421     6.1460     1.9674 C.ar    
  17 C17            7.3396     4.0174     1.3455 C.ar    
  18 C18            8.2158     3.3924     2.2129 C.ar    
  19 C19            9.1055     4.1442     2.9573 C.ar    
  20 C20            9.1184     5.5210     2.8349 C.ar    
  21 N21           -1.1991    -0.6876     0.4351 N.pl3   
  22 C22           -2.3828    -0.3659    -0.1492 C.2     
  23 C23           -1.4045    -1.8383     1.1521 C.2     
  24 C24           -2.6977    -2.1748     0.9872 C.2     
  25 N25           -3.2702    -1.2607     0.1898 N.2     
  26 C26           -3.3825    -3.3740     1.5905 C.3     
  27 C27            6.3932     6.0760     0.2817 C.3     
  28 C28            6.9139     5.9662    -1.1555 C.3     
  29 O29            6.8907     4.6075    -1.5802 O.3     
  30 C30            2.2020     6.8340    -0.4978 C.3     
  31 C31            1.4985     6.6226     0.8443 C.3     
  32 S32           10.2521     3.3259     4.0940 Du      
  33 F33           11.4508     4.2551     3.5537 F       
  34 F34           11.2719     2.5981     5.1051 F       
  35 F35            9.9128     4.4210     5.2245 F       
  36 F36           10.5913     2.2309     2.9635 F       
  37 F37            9.0533     2.3968     4.6342 F       
  38 H38           -0.8233     1.5207    -0.9659 H       
  39 H39            1.0920    -1.3331     1.5816 H       
  40 H40            3.2075    -0.0979     1.3877 H       
  41 H41            1.2843     2.7683    -1.1656 H       
  42 H42            1.7966     4.2736    -0.8853 H       
  43 H43            1.7469     3.8184     0.8346 H       
  44 H44            4.5916     1.6293    -0.0319 H       
  45 H45            4.1527     7.0069     1.3545 H       
  46 H46            3.9823     5.4119     2.1324 H       
  47 H47            8.2526     7.2217     1.8713 H       
  48 H48            6.6445     3.4300     0.7639 H       
  49 H49            8.2051     2.3167     2.3093 H       
  50 H50            9.8137     6.1084     3.4162 H       
  51 H51           -2.5597     0.4875    -0.7871 H       
  52 H52           -0.6699    -2.3721     1.7368 H       
  53 H53           -3.7982    -3.1047     2.5615 H       
  54 H54           -4.1848    -3.7044     0.9308 H       
  55 H55           -2.6598    -4.1803     1.7157 H       
  56 H56            6.2921     7.1259     0.5565 H       
  57 H57            6.2831     6.5622    -1.8151 H       
  58 H58            7.9363     6.3415    -1.1993 H       
  59 H59            2.8391     7.7126    -0.5991 H       
  60 H60            1.6671     6.5346    -1.3991 H       
  61 H61            0.5008     6.1838     0.8260 H       
  62 H62            1.6729     7.3619     1.6260 H       
@<TRIPOS>BOND
   1    1    2 ar
   2    1    6 ar
   3    1   38 1
   4    2    3 ar
   5    2   21 1
   6    3    4 ar
   7    3   39 1
   8    4    5 ar
   9    4   40 1
  10    5    6 ar
  11    5    9 1
  12    6   41 1
  13    7    8 1
  14    7   10 1
  15    7   42 1
  16    7   43 1
  17    8    9 2
  18    8   13 1
  19    9   44 1
  20   10   11 1
  21   10   30 1
  22   10   31 1
  23   11   12 1
  24   11   45 1
  25   11   46 1
  26   12   13 1
  27   12   27 1
  28   13   14 2
  29   14   29 1
  30   15   16 ar
  31   15   17 ar
  32   15   27 1
  33   16   20 ar
  34   16   47 1
  35   17   18 ar
  36   17   48 1
  37   18   19 ar
  38   18   49 1
  39   19   20 ar
  40   19   32 1
  41   20   50 1
  42   21   22 1
  43   21   23 1
  44   22   25 2
  45   22   51 1
  46   23   24 2
  47   23   52 1
  48   24   25 1
  49   24   26 1
  50   26   53 1
  51   26   54 1
  52   26   55 1
  53   27   28 1
  54   27   56 1
  55   28   29 1
  56   28   57 1
  57   28   58 1
  58   30   31 1
  59   30   59 1
  60   30   60 1
  61   31   61 1
  62   31   62 1
  63   32   33 1
  64   32   34 1
  65   32   35 1
  66   32   36 1
  67   32   37 1

#	End of record

