#	Name: ASD05313167
#	Creating user name:	WinNT
#	Creation time:	15. 06. 2019 20:58

#	Modifying user name:	WinNT
#	Modification time:	15. 06. 2019 20:58

#	Program:	/corina/corina34_cracker 3.40 0067  02.08.2006

@<TRIPOS>MOLECULE
ASD05313167
  35   38    0    0    0
SMALL
NO_CHARGES


@<TRIPOS>ATOM
   1 C1            -0.0723     0.8184     1.0230 C.2     
   2 C2             0.1136    -0.6181     0.5960 C.3     
   3 N3             0.9300     1.7315     1.0493 N.pl3   
   4 N4             1.4569    -0.7179    -0.0054 N.am    
   5 C5             2.5711    -0.0362     0.6706 C.3     
   6 C6             2.3168     1.4759     0.6634 C.3     
   7 N7            -0.9037     2.6418     1.7064 N.2     
   8 N8            -1.1572     1.4097     1.4253 N.2     
   9 C9             0.3719     2.8911     1.4932 C.2     
  10 O10            2.6020     5.5877     1.7516 O.3     
  11 N11            2.3350     4.4375     1.4916 N.2     
  12 C12            1.0656     4.1825     1.6995 C.2     
  13 C13            0.4894     5.3994     2.1629 C.2     
  14 C14            1.5265     6.2666     2.1756 C.2     
  15 C15            1.6575    -1.4144    -1.1417 C.2     
  16 O16            2.7493    -1.4042    -1.6762 O.2     
  17 C17            0.5507    -2.1901    -1.7377 C.ar    
  18 C18            0.3193    -2.1381    -3.1151 C.ar    
  19 C19           -0.7170    -2.8657    -3.6653 C.ar    
  20 C20           -1.5254    -3.6450    -2.8552 C.ar    
  21 C21           -1.3005    -3.7001    -1.4894 C.ar    
  22 C22           -0.2653    -2.9828    -0.9282 C.ar    
  23 Cl23          -2.8270    -4.5567    -3.5542 Cl      
  24 Cl24           1.3320    -1.1608    -4.1314 Cl      
  25 H25            0.0441    -1.2757     1.4625 H       
  26 H26           -0.6443    -0.8886    -0.1392 H       
  27 H27            2.6429    -0.3884     1.6996 H       
  28 H28            3.5018    -0.2514     0.1456 H       
  29 H29            2.4950     1.8704    -0.3370 H       
  30 H30            2.9875     1.9615     1.3722 H       
  31 H31           -0.5377     5.5862     2.4397 H       
  32 H32            1.4948     7.3051     2.4705 H       
  33 H33           -0.8976    -2.8266    -4.7293 H       
  34 H34           -1.9348    -4.3100    -0.8632 H       
  35 H35           -0.0885    -3.0308     0.1362 H       
@<TRIPOS>BOND
   1    1    2 1
   2    1    3 1
   3    1    8 2
   4    2    4 1
   5    2   25 1
   6    2   26 1
   7    3    6 1
   8    3    9 1
   9    4    5 1
  10    4   15 am
  11    5    6 1
  12    5   27 1
  13    5   28 1
  14    6   29 1
  15    6   30 1
  16    7    8 1
  17    7    9 2
  18    9   12 1
  19   10   11 1
  20   10   14 1
  21   11   12 2
  22   12   13 1
  23   13   14 2
  24   13   31 1
  25   14   32 1
  26   15   16 2
  27   15   17 1
  28   17   18 ar
  29   17   22 ar
  30   18   19 ar
  31   18   24 1
  32   19   20 ar
  33   19   33 1
  34   20   21 ar
  35   20   23 1
  36   21   22 ar
  37   21   34 1
  38   22   35 1

#	End of record

