#	Name: ASD01885170
#	Creating user name:	WinNT
#	Creation time:	15. 06. 2019 19:49

#	Modifying user name:	WinNT
#	Modification time:	15. 06. 2019 19:49

#	Program:	/corina/corina34_cracker 3.40 0067  02.08.2006

@<TRIPOS>MOLECULE
ASD01885170
  54   58    0    0    0
SMALL
NO_CHARGES


@<TRIPOS>ATOM
   1 C1            -0.0331     1.3457    -0.1964 C.2     
   2 C2             0.0381    -0.0544    -0.1009 C.2     
   3 C3             1.2559    -0.6487     0.0897 C.2     
   4 C4             2.4147     0.1524     0.1867 C.2     
   5 C5             2.3232     1.4933     0.0923 C.2     
   6 N6             1.1138     2.0955    -0.0978 N.pl3   
   7 C7             0.7207     3.3952    -0.2278 C.2     
   8 N8            -0.5759     3.3988    -0.3924 N.2     
   9 N9            -1.0319     2.1958    -0.3806 N.2     
  10 C10            1.6175     4.6057    -0.1888 C.3     
  11 N11            1.3517    -2.0335     0.1879 N.pl3   
  12 C12            2.0583    -2.8159    -0.8378 C.3     
  13 C13            3.0683    -3.7332    -0.1402 C.3     
  14 N14            2.3769    -4.5300     0.8820 N.3     
  15 C15            1.8107    -3.6733     1.9325 C.3     
  16 C16            0.7544    -2.7530     1.3231 C.3     
  17 C17            3.2290    -5.4932     1.4269 C.ar    
  18 C18            2.7661    -6.3535     2.4145 C.ar    
  19 C19            3.6112    -7.3051     2.9507 C.ar    
  20 C20            4.9168    -7.4022     2.5056 C.ar    
  21 C21            5.3809    -6.5474     1.5226 C.ar    
  22 C22            4.5396    -5.5970     0.9783 C.ar    
  23 C23            2.1020     4.9272    -1.6040 C.3     
  24 C24            2.9285     6.2210    -1.6931 C.3     
  25 C25            3.8423     5.4762    -2.6806 C.3     
  26 C26            3.3827     4.1748    -2.0024 C.3     
  27 C27           -1.2110    -0.8909    -0.2066 C.3     
  28 F28           -1.7120    -1.1448     1.0747 F       
  29 F29           -2.1716    -0.2022    -0.9550 F       
  30 F30           -0.9088    -2.1024    -0.8377 F       
  31 H31            3.3782    -0.3117     0.3375 H       
  32 H32            3.2155     2.0970     0.1678 H       
  33 H33            1.0627     5.4562     0.2073 H       
  34 H34            2.4756     4.4016     0.4515 H       
  35 H35            1.3421    -3.4180    -1.3969 H       
  36 H36            2.5826    -2.1423    -1.5155 H       
  37 H37            3.5227    -4.3987    -0.8743 H       
  38 H38            3.8429    -3.1289     0.3320 H       
  39 H39            1.3530    -4.2953     2.7017 H       
  40 H40            2.6027    -3.0698     2.3759 H       
  41 H41            0.4142    -2.0389     2.0731 H       
  42 H42           -0.0887    -3.3467     0.9699 H       
  43 H43            1.7466    -6.2780     2.7628 H       
  44 H44            3.2520    -7.9740     3.7188 H       
  45 H45            5.5757    -8.1470     2.9269 H       
  46 H46            6.4012    -6.6259     1.1772 H       
  47 H47            4.9026    -4.9299     0.2104 H       
  48 H48            1.3078     4.8643    -2.3479 H       
  49 H49            2.3879     7.0543    -2.1418 H       
  50 H50            3.4218     6.4891    -0.7588 H       
  51 H51            3.5247     5.5628    -3.7197 H       
  52 H52            4.9019     5.6904    -2.5415 H       
  53 H53            4.0002     3.8835    -1.1527 H       
  54 H54            3.2088     3.3563    -2.7009 H       
@<TRIPOS>BOND
   1    1    2 1
   2    1    6 1
   3    1    9 2
   4    2   27 1
   5    2    3 2
   6    3    4 1
   7    3   11 1
   8    4    5 2
   9    4   31 1
  10    5    6 1
  11    5   32 1
  12    6    7 1
  13    7    8 2
  14    7   10 1
  15    8    9 1
  16   10   23 1
  17   10   33 1
  18   10   34 1
  19   11   12 1
  20   11   16 1
  21   12   13 1
  22   12   35 1
  23   12   36 1
  24   13   14 1
  25   13   37 1
  26   13   38 1
  27   14   15 1
  28   14   17 1
  29   15   16 1
  30   15   39 1
  31   15   40 1
  32   16   41 1
  33   16   42 1
  34   17   18 ar
  35   17   22 ar
  36   18   19 ar
  37   18   43 1
  38   19   20 ar
  39   19   44 1
  40   20   21 ar
  41   20   45 1
  42   21   22 ar
  43   21   46 1
  44   22   47 1
  45   23   24 1
  46   23   26 1
  47   23   48 1
  48   24   25 1
  49   24   49 1
  50   24   50 1
  51   25   26 1
  52   25   51 1
  53   25   52 1
  54   26   53 1
  55   26   54 1
  56   27   28 1
  57   27   29 1
  58   27   30 1

#	End of record

