#	Name: ASD04590392
#	Creating user name:	WinNT
#	Creation time:	15. 06. 2019 20:50

#	Modifying user name:	WinNT
#	Modification time:	15. 06. 2019 20:50

#	Program:	/corina/corina34_cracker 3.40 0067  02.08.2006

@<TRIPOS>MOLECULE
ASD04590392
  36   39    0    0    0
SMALL
NO_CHARGES


@<TRIPOS>ATOM
   1 C1            -0.0168     1.3870     0.0097 C.ar    
   2 C2             0.0021    -0.0041     0.0020 C.ar    
   3 C3            -2.4025    -0.0404     0.0243 C.ar    
   4 C4            -2.4151     1.3641     0.0440 C.ar    
   5 C5            -1.2181     2.0699     0.0305 C.ar    
   6 N6            -3.6941    -0.4539     0.0437 N.2     
   7 C7            -4.4900     0.5871     0.0736 C.2     
   8 N8            -3.7472     1.7377     0.0751 N.pl3   
   9 C9            -5.9662     0.5281     0.1015 C.2     
  10 C10           -6.7513    -0.6480     0.1010 C.2     
  11 C11           -8.0541    -0.2752     0.1321 C.2     
  12 N12           -8.0984     1.0830     0.1517 N.pl3   
  13 N13           -6.7827     1.5628     0.1371 N.2     
  14 N14           -6.2677    -1.9662     0.0727 N.am    
  15 C15           -7.1313    -3.0009     0.0758 C.2     
  16 O16           -8.3292    -2.7931     0.1029 O.2     
  17 C17           -6.6234    -4.3857     0.0461 C.ar    
  18 C18           -1.1770    -0.7191     0.0090 C.ar    
  19 C19           -5.9300    -6.3268    -1.1956 C.ar    
  20 C20           -5.6695    -6.9891    -0.0097 C.ar    
  21 C21           -5.8869    -6.3623     1.2039 C.ar    
  22 C22           -6.3621    -5.0650     1.2410 C.ar    
  23 F23           -6.5734    -4.4545     2.4275 F       
  24 C24           -6.4056    -5.0291    -1.1770 C.ar    
  25 F25           -6.6600    -4.3841    -2.3366 F       
  26 F26           -1.1505    -2.0698     0.0006 F       
  27 F27            1.1837    -0.6589    -0.0128 F       
  28 F28            1.1462     2.0744     0.0023 F       
  29 F29           -1.2288     3.4208     0.0383 F       
  30 H30           -4.0906     2.6447     0.0941 H       
  31 H31           -8.9056    -0.9394     0.1394 H       
  32 H32           -8.9019     1.6258     0.1748 H       
  33 H33           -5.3122    -2.1319     0.0510 H       
  34 H34           -5.7571    -6.8234    -2.1389 H       
  35 H35           -5.2983    -8.0030    -0.0314 H       
  36 H36           -5.6808    -6.8868     2.1253 H       
@<TRIPOS>BOND
   1    1    2 ar
   2    1   28 1
   3    1    5 ar
   4    2   18 ar
   5    2   27 1
   6    3    4 ar
   7    3    6 1
   8    3   18 ar
   9    4    5 ar
  10    4    8 1
  11    5   29 1
  12    6    7 2
  13    7    8 1
  14    7    9 1
  15    8   30 1
  16    9   10 1
  17    9   13 2
  18   10   11 2
  19   10   14 1
  20   11   12 1
  21   11   31 1
  22   12   13 1
  23   12   32 1
  24   14   15 am
  25   14   33 1
  26   15   16 2
  27   15   17 1
  28   17   24 ar
  29   17   22 ar
  30   18   26 1
  31   19   20 ar
  32   19   24 ar
  33   19   34 1
  34   20   21 ar
  35   20   35 1
  36   21   22 ar
  37   21   36 1
  38   22   23 1
  39   24   25 1

#	End of record

