#	Name: ASD01811424
#	Creating user name:	WinNT
#	Creation time:	15. 06. 2019 19:26

#	Modifying user name:	WinNT
#	Modification time:	15. 06. 2019 19:26

#	Program:	/corina/corina34_cracker 3.40 0067  02.08.2006

@<TRIPOS>MOLECULE
ASD01811424
  66   71    0    0    0
SMALL
NO_CHARGES


@<TRIPOS>ATOM
   1 C1            -0.1310     1.6684    -1.1761 C.2     
   2 C2            -0.0909     0.2185    -1.4449 C.ar    
   3 C3             0.9517    -0.3363    -2.2032 C.ar    
   4 C4             0.9488    -1.6863    -2.4278 C.ar    
   5 C5            -0.0808    -2.4649    -1.9015 C.ar    
   6 N6            -1.0543    -1.9156    -1.1882 N.ar    
   7 C7            -1.0861    -0.6221    -0.9439 C.ar    
   8 O8             0.7433     2.3921    -1.6126 O.2     
   9 N9            -1.1397     2.1918    -0.4515 N.am    
  10 C10           -2.3253     4.2496     0.0169 C.ar    
  11 C11           -1.1313     3.5512    -0.1205 C.ar    
  12 C12            0.0711     4.2205     0.0754 C.ar    
  13 C13            0.0258     5.5795     0.4053 C.ar    
  14 C14           -1.2159     6.2050     0.5236 C.ar    
  15 N15           -2.3302     5.5307     0.3288 N.ar    
  16 C16           -3.6334     3.5333    -0.2000 C.3     
  17 C17            1.2741     6.3408     0.6254 C.2     
  18 O18            1.4166     7.4350     0.1155 O.2     
  19 C19            3.6568     5.2155     3.7641 C.3     
  20 O20            4.7485     4.4843     3.1837 O.3     
  21 C21            5.8508     4.6855     4.0880 C.3     
  22 C22            5.2359     4.9055     5.4510 C.ar    
  23 C23            5.7513     4.8411     6.7261 C.ar    
  24 C24            4.9260     5.0999     7.8228 C.ar    
  25 C25            3.5828     5.4224     7.6173 C.ar    
  26 C26            3.0789     5.4841     6.3343 C.ar    
  27 C27            3.9000     5.2277     5.2532 C.ar    
  28 N28            2.2539     5.8216     1.3915 N.am    
  29 C29            3.4565     6.6068     1.7012 C.3     
  30 C30            3.6424     6.6435     3.2219 C.3     
  31 C31            2.3364     4.5148     3.4509 C.3     
  32 C32            2.1383     4.4604     1.9323 C.3     
  33 C33            5.4546     5.0345     9.1520 C.1     
  34 N34            5.8740     4.9826    10.2065 N.1     
  35 N35           -0.0872    -3.8310    -2.1271 N.3     
  36 C36           -1.2548    -4.4667    -1.4887 C.3     
  37 C37           -1.4058    -5.3281    -2.7503 C.3     
  38 C38           -0.6979    -4.1484    -3.4314 C.3     
  39 H39            1.7383     0.2879    -2.6007 H       
  40 H40            1.7366    -2.1441    -3.0076 H       
  41 H41           -1.8912    -0.2077    -0.3552 H       
  42 H42           -1.8715     1.6260    -0.1593 H       
  43 H43            1.0150     3.7053    -0.0239 H       
  44 H44           -1.2637     7.2535     0.7781 H       
  45 H45           -3.9787     3.1134     0.7448 H       
  46 H46           -4.3750     4.2375    -0.5772 H       
  47 H47           -3.4927     2.7311    -0.9243 H       
  48 H48            6.4904     3.8029     4.1027 H       
  49 H49            6.4261     5.5619     3.7897 H       
  50 H50            6.7909     4.5909     6.8779 H       
  51 H51            2.9394     5.6228     8.4612 H       
  52 H52            2.0402     5.7330     6.1748 H       
  53 H53            4.3263     6.1413     1.2378 H       
  54 H54            3.3376     7.6221     1.3229 H       
  55 H55            2.8200     7.1966     3.6757 H       
  56 H56            4.5864     7.1331     3.4612 H       
  57 H57            2.3586     3.5013     3.8514 H       
  58 H58            1.5144     5.0679     3.9054 H       
  59 H59            1.1498     4.0603     1.7068 H       
  60 H60            2.9028     3.8240     1.4866 H       
  61 H61           -1.0030    -5.0419    -0.5977 H       
  62 H62           -2.0879    -3.7824    -1.3279 H       
  63 H63           -0.8231    -6.2492    -2.7342 H       
  64 H64           -2.4375    -5.4744    -3.0700 H       
  65 H65           -1.3824    -3.3792    -3.7891 H       
  66 H66            0.0259    -4.4539    -4.1870 H       
@<TRIPOS>BOND
   1    1    2 1
   2    1    8 2
   3    1    9 am
   4    2    3 ar
   5    2    7 ar
   6    3    4 ar
   7    3   39 1
   8    4    5 ar
   9    4   40 1
  10    5    6 ar
  11    5   35 1
  12    6    7 ar
  13    7   41 1
  14    9   11 1
  15    9   42 1
  16   10   11 ar
  17   10   15 ar
  18   10   16 1
  19   11   12 ar
  20   12   13 ar
  21   12   43 1
  22   13   14 ar
  23   13   17 1
  24   14   15 ar
  25   14   44 1
  26   16   45 1
  27   16   46 1
  28   16   47 1
  29   17   18 2
  30   17   28 am
  31   19   20 1
  32   19   27 1
  33   19   30 1
  34   19   31 1
  35   20   21 1
  36   21   22 1
  37   21   48 1
  38   21   49 1
  39   22   23 ar
  40   22   27 ar
  41   23   24 ar
  42   23   50 1
  43   24   25 ar
  44   24   33 1
  45   25   26 ar
  46   25   51 1
  47   26   27 ar
  48   26   52 1
  49   28   29 1
  50   28   32 1
  51   29   30 1
  52   29   53 1
  53   29   54 1
  54   30   55 1
  55   30   56 1
  56   31   32 1
  57   31   57 1
  58   31   58 1
  59   32   59 1
  60   32   60 1
  61   33   34 3
  62   35   36 1
  63   35   38 1
  64   36   37 1
  65   36   61 1
  66   36   62 1
  67   37   38 1
  68   37   63 1
  69   37   64 1
  70   38   65 1
  71   38   66 1

#	End of record

