#	Name: ASD01881725
#	Creating user name:	WinNT
#	Creation time:	15. 06. 2019 19:43

#	Modifying user name:	WinNT
#	Modification time:	15. 06. 2019 19:43

#	Program:	/corina/corina34_cracker 3.40 0067  02.08.2006

@<TRIPOS>MOLECULE
ASD01881725
  46   49    0    0    0
SMALL
NO_CHARGES


@<TRIPOS>ATOM
   1 N1             0.7022     0.4695    -2.8677 N.pl3   
   2 N2             0.7581    -0.7994    -2.6531 N.2     
   3 N3             1.8880    -1.1483    -2.1463 N.2     
   4 C4             2.6652    -0.0564    -1.9992 C.ar    
   5 C5             1.8957     1.0236    -2.4719 C.ar    
   6 C6             3.9555     0.1761    -1.5155 C.ar    
   7 C7             4.4568     1.4627    -1.5084 C.ar    
   8 C8             3.6855     2.5229    -1.9788 C.ar    
   9 C9             2.4223     2.3086    -2.4553 C.ar    
  10 O10            5.7114     1.6964    -1.0387 O.3     
  11 N11            8.2237     5.0349    -1.1473 N.3     
  12 C12            7.7026     4.6436     0.1687 C.3     
  13 C13            7.2202     3.1922     0.1168 C.3     
  14 C14            6.1258     3.0608    -0.9460 C.3     
  15 C15            6.6799     3.5202    -2.2974 C.3     
  16 C16            7.1778     4.9622    -2.1756 C.3     
  17 C17            8.8222     6.3756    -1.0990 C.3     
  18 C18           10.1999     6.2956    -0.4385 C.3     
  19 F19           10.9796     5.3409    -1.1002 F       
  20 F20           10.8269     7.5439    -0.5147 F       
  21 F21           10.0530     5.9287     0.9036 F       
  22 C22           -0.4344     1.1952    -3.4402 C.3     
  23 C23           -1.3685     1.6483    -2.3164 C.3     
  24 C24           -2.5604     2.5277    -2.6999 C.3     
  25 C25           -2.7843     1.0686    -2.2978 C.3     
  26 Br26           5.0063    -1.2597    -0.8752 Br      
  27 H27            4.0896     3.5243    -1.9673 H       
  28 H28            1.8336     3.1384    -2.8177 H       
  29 H29            8.4919     4.7376     0.9145 H       
  30 H30            6.8699     5.2936     0.4375 H       
  31 H31            8.0555     2.5400    -0.1385 H       
  32 H32            6.8192     2.9070     1.0894 H       
  33 H33            5.2738     3.6823    -0.6702 H       
  34 H34            7.5066     2.8733    -2.5907 H       
  35 H35            5.8927     3.4695    -3.0497 H       
  36 H36            6.3477     5.6107    -1.8957 H       
  37 H37            7.5861     5.2875    -3.1324 H       
  38 H38            8.9270     6.7633    -2.1123 H       
  39 H39            8.1799     7.0396    -0.5206 H       
  40 H40           -0.0717     2.0669    -3.9849 H       
  41 H41           -0.9772     0.5406    -4.1221 H       
  42 H42           -0.8901     1.8399    -1.3560 H       
  43 H43           -2.8663     3.2977    -1.9916 H       
  44 H44           -2.6790     2.7835    -3.7528 H       
  45 H45           -3.0503     0.3644    -3.0861 H       
  46 H46           -3.2376     0.8786    -1.3248 H       
@<TRIPOS>BOND
   1    1    2 1
   2    1    5 1
   3    1   22 1
   4    2    3 2
   5    3    4 1
   6    4    5 ar
   7    4    6 ar
   8    5    9 ar
   9    6    7 ar
  10    6   26 1
  11    7    8 ar
  12    7   10 1
  13    8    9 ar
  14    8   27 1
  15    9   28 1
  16   10   14 1
  17   11   12 1
  18   11   16 1
  19   11   17 1
  20   12   13 1
  21   12   29 1
  22   12   30 1
  23   13   14 1
  24   13   31 1
  25   13   32 1
  26   14   15 1
  27   14   33 1
  28   15   16 1
  29   15   34 1
  30   15   35 1
  31   16   36 1
  32   16   37 1
  33   17   18 1
  34   17   38 1
  35   17   39 1
  36   18   19 1
  37   18   20 1
  38   18   21 1
  39   22   23 1
  40   22   40 1
  41   22   41 1
  42   23   24 1
  43   23   25 1
  44   23   42 1
  45   24   25 1
  46   24   43 1
  47   24   44 1
  48   25   45 1
  49   25   46 1

#	End of record

