#	Name: ASD01151041
#	Creating user name:	WinNT
#	Creation time:	15. 06. 2019 19:05

#	Modifying user name:	WinNT
#	Modification time:	15. 06. 2019 19:05

#	Program:	/corina/corina34_cracker 3.40 0067  02.08.2006

@<TRIPOS>MOLECULE
ASD01151041
  38   39    0    0    0
SMALL
NO_CHARGES


@<TRIPOS>ATOM
   1 O1             0.0021    -0.0041     0.0020 O.2     
   2 C2            -0.0144     1.2091     0.0087 C.2     
   3 C3             1.2640     2.0242     0.0009 C.3     
   4 C4             1.1487     3.0659     1.1132 C.3     
   5 C5             2.4078     3.9351     1.1156 C.3     
   6 C6            -0.0670     3.9556     0.9242 C.3     
   7 C7            -1.2858     3.2291     0.4419 C.2     
   8 C8            -1.2721     1.9638     0.0185 C.2     
   9 C9            -2.6081     3.9733     0.4022 C.3     
  10 C10           -2.8299     4.6567     1.7540 C.3     
  11 C11           -1.6245     5.5448     2.0709 C.3     
  12 C12           -0.3811     4.6719     2.2423 C.3     
  13 C13           -1.8830     6.3071     3.3449 C.2     
  14 C14           -1.8891     7.6170     3.3347 C.2     
  15 C15           -2.1343     5.5624     4.6307 C.3     
  16 C16            0.2857     5.0292    -0.1072 C.3     
  17 H17            2.1188     1.3746     0.1888 H       
  18 H18            1.3803     2.5217    -0.9620 H       
  19 H19            1.0681     2.5544     2.0724 H       
  20 H20            2.5055     4.4357     0.1523 H       
  21 H21            2.3329     4.6810     1.9068 H       
  22 H22            3.2821     3.3077     1.2892 H       
  23 H23           -2.1883     1.4941    -0.3078 H       
  24 H24           -2.5810     4.7247    -0.3870 H       
  25 H25           -3.4180     3.2692     0.2115 H       
  26 H26           -3.7313     5.2680     1.7097 H       
  27 H27           -2.9394     3.9002     2.5311 H       
  28 H28           -1.4655     6.2473     1.2527 H       
  29 H29           -0.5617     3.9326     3.0227 H       
  30 H30            0.4652     5.2978     2.5255 H       
  31 H31           -2.0744     8.1633     4.2478 H       
  32 H32           -1.7090     8.1507     2.4132 H       
  33 H33           -2.0903     4.4895     4.4438 H       
  34 H34           -1.3743     5.8350     5.3630 H       
  35 H35           -3.1200     5.8241     5.0155 H       
  36 H36            0.5529     4.5530    -1.0506 H       
  37 H37           -0.5736     5.6821    -0.2604 H       
  38 H38            1.1291     5.6175     0.2545 H       
@<TRIPOS>BOND
   1    1    2 2
   2    2    3 1
   3    2    8 1
   4    3    4 1
   5    3   17 1
   6    3   18 1
   7    4    5 1
   8    4    6 1
   9    4   19 1
  10    5   20 1
  11    5   21 1
  12    5   22 1
  13    6    7 1
  14    6   16 1
  15    6   12 1
  16    7    8 2
  17    7    9 1
  18    8   23 1
  19    9   10 1
  20    9   24 1
  21    9   25 1
  22   10   11 1
  23   10   26 1
  24   10   27 1
  25   11   12 1
  26   11   13 1
  27   11   28 1
  28   12   29 1
  29   12   30 1
  30   13   14 2
  31   13   15 1
  32   14   31 1
  33   14   32 1
  34   15   33 1
  35   15   34 1
  36   15   35 1
  37   16   36 1
  38   16   37 1
  39   16   38 1

#	End of record

