#	Name: ASD07930189
#	Creating user name:	WinNT
#	Creation time:	15. 06. 2019 21:11

#	Modifying user name:	WinNT
#	Modification time:	15. 06. 2019 21:11

#	Program:	/corina/corina34_cracker 3.40 0067  02.08.2006

@<TRIPOS>MOLECULE
ASD07930189
  57   61    0    0    0
SMALL
NO_CHARGES


@<TRIPOS>ATOM
   1 C1            -0.0180     1.4754     0.0102 C.2     
   2 C2             0.0021    -0.0041     0.0020 C.2     
   3 N3             1.1814     2.1509     0.0023 N.am    
   4 N4             1.1194    -0.6400     0.4288 N.am    
   5 C5             2.2493     0.1650     0.9143 C.3     
   6 C6             2.4261     1.3707    -0.0208 C.3     
   7 C7            -1.2008     2.1485     0.0195 C.2     
   8 C8            -1.2247     3.5486     0.0291 C.2     
   9 C9            -0.0458     4.2425     0.0303 C.2     
  10 C10            1.2139     3.4948     0.0143 C.2     
  11 O11           -0.9642    -0.6358    -0.3794 O.2     
  12 O12            2.2807     4.0852     0.0118 O.2     
  13 C13            0.4239     6.4402     1.0348 C.2     
  14 N14            0.2552     7.6848     0.6804 N.2     
  15 C15           -0.3161     7.7283    -0.5326 C.2     
  16 C16           -0.5113     6.4636    -0.9513 C.2     
  17 N17           -0.0431     5.6402     0.0404 N.pl3   
  18 C18           -0.6774     8.9771    -1.2948 C.3     
  19 C19            1.2002    -2.1026     0.4064 C.3     
  20 C20            1.7676    -2.5615    -0.9383 C.3     
  21 O21            3.1161    -2.1063    -1.0666 O.3     
  22 C22            3.7706    -2.4314    -2.2124 C.ar    
  23 C23            3.1241    -3.1720    -3.1876 C.ar    
  24 C24            3.7911    -3.5021    -4.3512 C.ar    
  25 C25            5.0970    -3.0948    -4.5332 C.ar    
  26 C26            5.7503    -2.3531    -3.5571 C.ar    
  27 C27            7.1778    -1.9506    -3.8206 C.3     
  28 C28            7.5941    -0.8099    -2.8943 C.3     
  29 C29            7.2490    -1.2057    -1.4539 C.3     
  30 C30            5.7289    -1.2035    -1.3048 C.3     
  31 C31            5.0863    -2.0123    -2.4008 C.ar    
  32 F32            7.7470    -2.4851    -1.1846 F       
  33 F33            7.8111    -0.2838    -0.5643 F       
  34 H34            2.0426     0.5136     1.9261 H       
  35 H35            3.1572    -0.4381     0.9099 H       
  36 H36            2.6247     1.0242    -1.0350 H       
  37 H37            3.2543     1.9881     0.3270 H       
  38 H38           -2.1297     1.5976     0.0190 H       
  39 H39           -2.1668     4.0767     0.0353 H       
  40 H40            0.8650     6.1025     1.9610 H       
  41 H41           -0.9521     6.1566    -1.8883 H       
  42 H42            0.1651     9.2797    -1.9167 H       
  43 H43           -1.5430     8.7793    -1.9270 H       
  44 H44           -0.9156     9.7756    -0.5921 H       
  45 H45            1.8522    -2.4428     1.2110 H       
  46 H46            0.2042    -2.5236     0.5432 H       
  47 H47            1.7451    -3.6500    -0.9897 H       
  48 H48            1.1658    -2.1470    -1.7471 H       
  49 H49            2.1029    -3.4904    -3.0388 H       
  50 H50            3.2920    -4.0779    -5.1166 H       
  51 H51            5.6165    -3.3555    -5.4434 H       
  52 H52            7.8299    -2.8074    -3.6512 H       
  53 H53            7.2742    -1.6257    -4.8566 H       
  54 H54            8.6672    -0.6396    -2.9811 H       
  55 H55            7.0549     0.0980    -3.1647 H       
  56 H56            5.4621    -1.6282    -0.3370 H       
  57 H57            5.3640    -0.1779    -1.3594 H       
@<TRIPOS>BOND
   1    1    2 1
   2    1    3 1
   3    1    7 2
   4    2    4 am
   5    2   11 2
   6    3    6 1
   7    3   10 am
   8    4    5 1
   9    4   19 1
  10    5    6 1
  11    5   34 1
  12    5   35 1
  13    6   36 1
  14    6   37 1
  15    7    8 1
  16    7   38 1
  17    8    9 2
  18    8   39 1
  19    9   10 1
  20    9   17 1
  21   10   12 2
  22   13   14 2
  23   13   17 1
  24   13   40 1
  25   14   15 1
  26   15   16 2
  27   15   18 1
  28   16   17 1
  29   16   41 1
  30   18   42 1
  31   18   43 1
  32   18   44 1
  33   19   20 1
  34   19   45 1
  35   19   46 1
  36   20   21 1
  37   20   47 1
  38   20   48 1
  39   21   22 1
  40   22   23 ar
  41   22   31 ar
  42   23   24 ar
  43   23   49 1
  44   24   25 ar
  45   24   50 1
  46   25   26 ar
  47   25   51 1
  48   26   27 1
  49   26   31 ar
  50   27   28 1
  51   27   52 1
  52   27   53 1
  53   28   29 1
  54   28   54 1
  55   28   55 1
  56   29   30 1
  57   29   32 1
  58   29   33 1
  59   30   31 1
  60   30   56 1
  61   30   57 1

#	End of record

