#	Name: ASD00311267
#	Creating user name:	WinNT
#	Creation time:	15. 06. 2019 18:34

#	Modifying user name:	WinNT
#	Modification time:	15. 06. 2019 18:34

#	Program:	/corina/corina34_cracker 3.40 0067  02.08.2006

@<TRIPOS>MOLECULE
ASD00311267
  42   46    0    0    0
SMALL
NO_CHARGES


@<TRIPOS>ATOM
   1 C1            -0.0167     1.3777     0.0096 C.2     
   2 C2             0.0021    -0.0041     0.0020 C.2     
   3 C3             1.2588    -0.6767    -0.0136 C.2     
   4 C4             2.4316     0.0673    -0.0208 C.2     
   5 C5             2.3574     1.4752    -0.0125 C.2     
   6 N6             1.1648     2.0903     0.0022 N.am    
   7 C7            -1.3432    -0.5751     0.0118 C.2     
   8 C8            -2.3226     0.3260     0.0260 C.2     
   9 S9            -1.6793     1.9561     0.0358 S.3     
  10 O10            3.3822     2.1373    -0.0187 O.2     
  11 C11            3.7477    -0.6120    -0.0365 C.ar    
  12 C12            4.5935    -0.4746    -1.1370 C.ar    
  13 C13            5.8183    -1.1098    -1.1457 C.ar    
  14 C14            6.2080    -1.8818    -0.0659 C.ar    
  15 C15            5.3735    -2.0220     1.0286 C.ar    
  16 C16            4.1487    -1.3870     1.0516 C.ar    
  17 C17           -2.4646    -2.5845     0.9321 C.ar    
  18 C18           -1.5956    -2.0350     0.0063 C.ar    
  19 C19           -0.9509    -2.8500    -0.9390 C.ar    
  20 C20           -1.1657    -4.1906    -0.9651 C.ar    
  21 C21           -2.0430    -4.7802    -0.0373 C.ar    
  22 C22           -2.2822    -6.1648    -0.0442 C.ar    
  23 C23           -3.1371    -6.7063     0.8663 C.ar    
  24 C24           -3.7819    -5.9080     1.8093 C.ar    
  25 C25           -3.5754    -4.5635     1.8469 C.ar    
  26 C26           -2.6991    -3.9677     0.9221 C.ar    
  27 O27            1.3088    -2.0292    -0.0209 O.3     
  28 H28            1.1326     3.0597     0.0077 H       
  29 H29           -3.3752     0.0844     0.0344 H       
  30 H30            4.2902     0.1276    -1.9807 H       
  31 H31            6.4739    -1.0045    -1.9974 H       
  32 H32            7.1675    -2.3774    -0.0775 H       
  33 H33            5.6832    -2.6260     1.8686 H       
  34 H34            3.5000    -1.4935     1.9085 H       
  35 H35           -2.9548    -1.9545     1.6595 H       
  36 H36           -0.2758    -2.4044    -1.6547 H       
  37 H37           -0.6633    -4.8039    -1.6984 H       
  38 H38           -1.7903    -6.7965    -0.7690 H       
  39 H39           -3.3186    -7.7709     0.8575 H       
  40 H40           -4.4556    -6.3630     2.5203 H       
  41 H41           -4.0821    -3.9569     2.5829 H       
  42 H42            2.2060    -2.3896    -0.0314 H       
@<TRIPOS>BOND
   1    1    2 2
   2    1    6 1
   3    1    9 1
   4    2    3 1
   5    2    7 1
   6    3    4 2
   7    3   27 1
   8    4    5 1
   9    4   11 1
  10    5    6 am
  11    5   10 2
  12    6   28 1
  13    7    8 2
  14    7   18 1
  15    8    9 1
  16    8   29 1
  17   11   12 ar
  18   11   16 ar
  19   12   13 ar
  20   12   30 1
  21   13   14 ar
  22   13   31 1
  23   14   15 ar
  24   14   32 1
  25   15   16 ar
  26   15   33 1
  27   16   34 1
  28   17   18 ar
  29   17   26 ar
  30   17   35 1
  31   18   19 ar
  32   19   20 ar
  33   19   36 1
  34   20   21 ar
  35   20   37 1
  36   21   22 ar
  37   21   26 ar
  38   22   23 ar
  39   22   38 1
  40   23   24 ar
  41   23   39 1
  42   24   25 ar
  43   24   40 1
  44   25   26 ar
  45   25   41 1
  46   27   42 1

#	End of record

