#	Name: ASD00180039
#	Creating user name:	WinNT
#	Creation time:	15. 06. 2019 18:33

#	Modifying user name:	WinNT
#	Modification time:	15. 06. 2019 18:33

#	Program:	/corina/corina34_cracker 3.40 0067  02.08.2006

@<TRIPOS>MOLECULE
ASD00180039
  47   48    0    0    0
SMALL
NO_CHARGES


@<TRIPOS>ATOM
   1 N1             0.0167     1.1142    -0.1658 N.ar    
   2 C2             0.1779    -0.1863    -0.2826 C.ar    
   3 C3             1.4627    -0.7408    -0.2645 C.ar    
   4 N4             2.5243     0.0433    -0.1293 N.ar    
   5 C5             2.3671     1.3561    -0.0110 C.ar    
   6 C6             1.0772     1.9087    -0.0296 C.ar    
   7 C7             0.8959     3.3687     0.1010 C.2     
   8 N8            -0.3242     3.9078    -0.0369 N.2     
   9 O9             1.8550     4.0833     0.3342 O.2     
  10 C10           -0.5167     4.8995    -0.8923 C.2     
  11 N11            3.4719     2.1773     0.1306 N.pl3   
  12 N12            0.4968     5.2984    -1.7135 N.pl3   
  13 N13           -1.7287     5.5226    -0.9526 N.pl3   
  14 Cl14          -1.2074    -1.2177    -0.4593 Cl      
  15 N15            1.6263    -2.1105    -0.3875 N.pl3   
  16 C16            2.9707    -2.6923    -0.3687 C.3     
  17 C17            2.8711    -4.2115    -0.5207 C.3     
  18 C18            4.2541    -4.8099    -0.5014 C.ar    
  19 C19            6.0886    -5.7477     0.7186 C.ar    
  20 C20            6.7928    -5.9085    -0.4658 C.ar    
  21 C21            6.2237    -5.5127    -1.6676 C.ar    
  22 C22            4.9560    -4.9640    -1.6826 C.ar    
  23 C23            4.8211    -5.1988     0.6982 C.ar    
  24 O24            8.0399    -6.4482    -0.4484 O.3     
  25 C25            8.7057    -6.5839    -1.7055 C.3     
  26 C26           10.0658    -7.1961    -1.4901 C.2     
  27 C27           10.4818    -8.1600    -2.2737 C.2     
  28 H28            4.3554     1.7891     0.2290 H       
  29 H29            3.3629     3.1412     0.1316 H       
  30 H30            1.3336     4.8079    -1.7245 H       
  31 H31            0.3808     6.0725    -2.2864 H       
  32 H32           -2.4494     5.2390    -0.3687 H       
  33 H33           -1.8698     6.2493    -1.5794 H       
  34 H34            0.8507    -2.6846    -0.4861 H       
  35 H35            3.5555    -2.2823    -1.1920 H       
  36 H36            3.4570    -2.4529     0.5770 H       
  37 H37            2.2863    -4.6215     0.3027 H       
  38 H38            2.3848    -4.4509    -1.4664 H       
  39 H39            6.5295    -6.0550     1.6555 H       
  40 H40            6.7700    -5.6366    -2.5910 H       
  41 H41            4.5127    -4.6554    -2.6178 H       
  42 H42            4.2727    -5.0731     1.6201 H       
  43 H43            8.1176    -7.2265    -2.3607 H       
  44 H44            8.8180    -5.6018    -2.1650 H       
  45 H45           10.6975    -6.8403    -0.6896 H       
  46 H46            9.8500    -8.5158    -3.0741 H       
  47 H47           11.4565    -8.5987    -2.1193 H       
@<TRIPOS>BOND
   1    1    2 ar
   2    1    6 ar
   3    2    3 ar
   4    2   14 1
   5    3    4 ar
   6    3   15 1
   7    4    5 ar
   8    5    6 ar
   9    5   11 1
  10    6    7 1
  11    7    8 1
  12    7    9 2
  13    8   10 2
  14   10   12 1
  15   10   13 1
  16   11   28 1
  17   11   29 1
  18   12   30 1
  19   12   31 1
  20   13   32 1
  21   13   33 1
  22   15   16 1
  23   15   34 1
  24   16   17 1
  25   16   35 1
  26   16   36 1
  27   17   18 1
  28   17   37 1
  29   17   38 1
  30   18   23 ar
  31   18   22 ar
  32   19   20 ar
  33   19   23 ar
  34   19   39 1
  35   20   21 ar
  36   20   24 1
  37   21   22 ar
  38   21   40 1
  39   22   41 1
  40   23   42 1
  41   24   25 1
  42   25   26 1
  43   25   43 1
  44   25   44 1
  45   26   27 2
  46   26   45 1
  47   27   46 1
  48   27   47 1

#	End of record

