#	Name: ASD01148658
#	Creating user name:	WinNT
#	Creation time:	15. 06. 2019 19:02

#	Modifying user name:	WinNT
#	Modification time:	15. 06. 2019 19:02

#	Program:	/corina/corina34_cracker 3.40 0067  02.08.2006

@<TRIPOS>MOLECULE
ASD01148658
  50   53    0    0    0
SMALL
NO_CHARGES


@<TRIPOS>ATOM
   1 N1             0.8209     1.6539    -0.9125 N.2     
   2 N2             1.5402     0.4673    -1.1020 N.pl3   
   3 C3             0.8250    -0.5495    -0.5258 C.2     
   4 C4            -0.3172     0.0124     0.0085 C.2     
   5 C5            -0.2787     1.3807    -0.2544 C.2     
   6 C6             1.2024    -1.9700    -0.4844 C.2     
   7 O7             2.1793    -2.3578    -1.0967 O.2     
   8 N8             0.4660    -2.8423     0.2320 N.am    
   9 C9             0.7528    -4.2001     0.1797 C.ar    
  10 C10            2.0428    -4.6500     0.4454 C.ar    
  11 C11            2.3315    -5.9951     0.3947 C.ar    
  12 C12            1.3298    -6.9199     0.0755 C.ar    
  13 C13            0.0351    -6.4809    -0.1923 C.ar    
  14 C14           -0.2601    -5.1205    -0.1357 C.ar    
  15 C15           -1.6303    -4.6480    -0.4116 C.2     
  16 N16           -2.6228    -5.5379    -0.6106 N.am    
  17 O17           -1.8642    -3.4558    -0.4595 O.2     
  18 C18           -3.9833    -5.0687    -0.8846 C.3     
  19 C19           -4.1341    -4.7873    -2.3809 C.3     
  20 C20           -4.9878    -6.1434    -0.4640 C.3     
  21 C21           -6.4734    -5.8416    -0.6709 C.3     
  22 C22           -5.7660    -6.8555    -1.5723 C.3     
  23 C23            1.6365    -8.3178     0.0238 C.1     
  24 N24            1.8799    -9.4266    -0.0171 N.1     
  25 Br25           3.4034    -3.4097     0.8769 Br      
  26 C26            2.7661     0.3428    -1.7603 C.ar    
  27 C27            3.3063     1.4392    -2.4242 C.ar    
  28 C28            4.5227     1.3015    -3.0724 C.ar    
  29 C29            5.1574     0.0679    -3.0332 C.ar    
  30 C30            4.5620    -0.9777    -2.3544 C.ar    
  31 N31            3.4052    -0.8156    -1.7421 N.ar    
  32 Cl32           2.4674     2.9589    -2.4407 Cl      
  33 Br33          -1.5970     2.6369     0.2556 Br      
  34 H34           -1.1000    -0.5136     0.5348 H       
  35 H35           -0.2642    -2.5218     0.7841 H       
  36 H36            3.3344    -6.3383     0.6015 H       
  37 H37           -0.7384    -7.1932    -0.4390 H       
  38 H38           -2.4362    -6.4890    -0.5724 H       
  39 H39           -4.1725    -4.1545    -0.3220 H       
  40 H40           -5.1464    -4.4382    -2.5847 H       
  41 H41           -3.4185    -4.0216    -2.6805 H       
  42 H42           -3.9449    -5.7015    -2.9434 H       
  43 H43           -4.7105    -6.7288     0.4127 H       
  44 H44           -7.1735    -6.2288     0.0694 H       
  45 H45           -6.7351    -4.8774    -1.1066 H       
  46 H46           -5.5623    -6.5584    -2.6010 H       
  47 H47           -6.0006    -7.9097    -1.4249 H       
  48 H48            4.9668     2.1348    -3.5965 H       
  49 H49            6.1067    -0.0733    -3.5285 H       
  50 H50            5.0522    -1.9395    -2.3216 H       
@<TRIPOS>BOND
   1    1    2 1
   2    1    5 2
   3    2    3 1
   4    2   26 1
   5    3    4 2
   6    3    6 1
   7    4    5 1
   8    4   34 1
   9    5   33 1
  10    6    7 2
  11    6    8 am
  12    8    9 1
  13    8   35 1
  14    9   10 ar
  15    9   14 ar
  16   10   11 ar
  17   10   25 1
  18   11   12 ar
  19   11   36 1
  20   12   13 ar
  21   12   23 1
  22   13   14 ar
  23   13   37 1
  24   14   15 1
  25   15   16 am
  26   15   17 2
  27   16   18 1
  28   16   38 1
  29   18   19 1
  30   18   20 1
  31   18   39 1
  32   19   40 1
  33   19   41 1
  34   19   42 1
  35   20   21 1
  36   20   22 1
  37   20   43 1
  38   21   22 1
  39   21   44 1
  40   21   45 1
  41   22   46 1
  42   22   47 1
  43   23   24 3
  44   26   27 ar
  45   26   31 ar
  46   27   28 ar
  47   27   32 1
  48   28   29 ar
  49   28   48 1
  50   29   30 ar
  51   29   49 1
  52   30   31 ar
  53   30   50 1

#	End of record

