#	Name: ASD08150687
#	Creating user name:	WinNT
#	Creation time:	15. 06. 2019 21:16

#	Modifying user name:	WinNT
#	Modification time:	15. 06. 2019 21:16

#	Program:	/corina/corina34_cracker 3.40 0067  02.08.2006

@<TRIPOS>MOLECULE
ASD08150687
  52   56    0    0    0
SMALL
NO_CHARGES


@<TRIPOS>ATOM
   1 C1            -0.0174     1.3320     0.1142 C.2     
   2 N2            -0.0006     0.0026     0.2072 N.2     
   3 C3             1.1325    -0.6707     0.2944 C.2     
   4 C4             2.3481     0.0115     0.2905 C.2     
   5 C5             2.3333     1.4189     0.1923 C.2     
   6 N6             1.1443     2.0532     0.1052 N.am    
   7 C7            -1.2508     2.0012     0.0181 C.2     
   8 C8            -1.2710     3.3608    -0.0771 C.2     
   9 C9            -0.0632     4.0721    -0.0779 C.2     
  10 C10            1.1134     3.4118     0.0089 C.2     
  11 O11            3.3764     2.0517     0.1856 O.2     
  12 C12            1.1111    -2.1739     0.3985 C.3     
  13 C13            0.4483    -2.5845     1.7150 C.3     
  14 C14            0.5377    -4.1031     1.8791 C.3     
  15 N15            0.3526    -2.7304    -0.7245 N.pl3   
  16 N16           -1.0976    -4.1232    -3.0500 N.2     
  17 C17           -1.4138    -5.0573    -3.8991 C.2     
  18 N18           -0.6525    -6.1660    -3.6766 N.pl3   
  19 C19            0.1812    -5.8879    -2.6231 C.ar    
  20 N20            1.1229    -6.5596    -1.9688 N.ar    
  21 C21            1.7703    -6.0032    -0.9667 C.ar    
  22 N22            1.5254    -4.7704    -0.5618 N.ar    
  23 C23            0.6017    -4.0217    -1.1555 C.ar    
  24 C24           -0.1162    -4.5717    -2.2309 C.ar    
  25 C25            3.6288    -0.7259     0.3880 C.ar    
  26 C26            4.5289    -0.7099    -0.6775 C.ar    
  27 C27            5.7207    -1.3985    -0.5804 C.ar    
  28 C28            6.0234    -2.1041     0.5704 C.ar    
  29 C29            5.1348    -2.1238     1.6306 C.ar    
  30 C30            3.9424    -1.4345     1.5479 C.ar    
  31 C31            2.4054     4.1875     0.0008 C.3     
  32 H32           -2.1748     1.4420     0.0194 H       
  33 H33           -2.2115     3.8865    -0.1518 H       
  34 H34           -0.0722     5.1495    -0.1534 H       
  35 H35            2.1321    -2.5546     0.3716 H       
  36 H36            0.9593    -2.0986     2.5461 H       
  37 H37           -0.5986    -2.2812     1.7048 H       
  38 H38            0.0656    -4.3956     2.8169 H       
  39 H39            0.0267    -4.5891     1.0479 H       
  40 H40            1.5846    -4.4064     1.8892 H       
  41 H41           -0.3242    -2.1938    -1.1660 H       
  42 H42           -2.1684    -4.9676    -4.6665 H       
  43 H43           -0.6931    -6.9990    -4.1720 H       
  44 H44            2.5298    -6.5767    -0.4562 H       
  45 H45            4.2934    -0.1600    -1.5766 H       
  46 H46            6.4184    -1.3869    -1.4047 H       
  47 H47            6.9572    -2.6421     0.6414 H       
  48 H48            5.3765    -2.6768     2.5262 H       
  49 H49            3.2514    -1.4470     2.3778 H       
  50 H50            3.0126     3.8732    -0.8481 H       
  51 H51            2.1892     5.2526    -0.0818 H       
  52 H52            2.9489     3.9977     0.9264 H       
@<TRIPOS>BOND
   1    1    2 2
   2    1    6 1
   3    1    7 1
   4    2    3 1
   5    3    4 2
   6    3   12 1
   7    4    5 1
   8    4   25 1
   9    5    6 am
  10    5   11 2
  11    6   10 1
  12    7    8 2
  13    7   32 1
  14    8    9 1
  15    8   33 1
  16    9   10 2
  17    9   34 1
  18   10   31 1
  19   12   13 1
  20   12   15 1
  21   12   35 1
  22   13   14 1
  23   13   36 1
  24   13   37 1
  25   14   38 1
  26   14   39 1
  27   14   40 1
  28   15   23 1
  29   15   41 1
  30   16   17 2
  31   16   24 1
  32   17   18 1
  33   17   42 1
  34   18   19 1
  35   18   43 1
  36   19   20 ar
  37   19   24 ar
  38   20   21 ar
  39   21   22 ar
  40   21   44 1
  41   22   23 ar
  42   23   24 ar
  43   25   26 ar
  44   25   30 ar
  45   26   27 ar
  46   26   45 1
  47   27   28 ar
  48   27   46 1
  49   28   29 ar
  50   28   47 1
  51   29   30 ar
  52   29   48 1
  53   30   49 1
  54   31   50 1
  55   31   51 1
  56   31   52 1

#	End of record

