#	Name: ASD01412072
#	Creating user name:	WinNT
#	Creation time:	15. 06. 2019 19:20

#	Modifying user name:	WinNT
#	Modification time:	15. 06. 2019 19:20

#	Program:	/corina/corina34_cracker 3.40 0067  02.08.2006

@<TRIPOS>MOLECULE
ASD01412072
  63   67    0    0    0
SMALL
NO_CHARGES


@<TRIPOS>ATOM
   1 C1             0.4535     1.9194    -1.3889 C.ar    
   2 C2             0.4695     0.5221    -1.4022 C.ar    
   3 C3             1.6356    -0.1741    -1.0833 C.ar    
   4 C4             2.7900     0.5151    -0.7501 C.ar    
   5 C5             2.7859     1.9250    -0.7333 C.ar    
   6 C6             1.6014     2.6260    -1.0575 C.ar    
   7 C7             1.6392    -1.6810    -1.1009 C.3     
   8 C8            -0.7556    -0.2220    -1.7554 C.2     
   9 N9            -1.9152     0.4390    -1.9424 N.am    
  10 O10           -0.7184    -1.4311    -1.8778 O.2     
  11 N11            4.0630     0.1084    -0.3974 N.pl3   
  12 C12            4.8277     1.2088    -0.1679 C.2     
  13 C13            4.0833     2.3228    -0.3624 C.2     
  14 C14            6.2819     1.2585     0.2403 C.3     
  15 O15            6.7609     2.5911     0.0188 O.3     
  16 C16            5.9448     3.6150     0.5938 C.3     
  17 C17            4.6272     3.7197    -0.1879 C.3     
  18 C18            6.4152     0.9012     1.7220 C.3     
  19 C19            7.8820     1.0108     2.1431 C.3     
  20 C20            8.0186     0.6315     3.6190 C.3     
  21 C21            7.0899     0.2717    -0.6048 C.3     
  22 C22           -3.1309    -0.2995    -2.2930 C.3     
  23 C23           -4.2786     0.6654    -2.4445 C.ar    
  24 C24           -4.5447     1.2324    -3.6765 C.ar    
  25 C25           -5.5964     2.1186    -3.8204 C.ar    
  26 C26           -6.3861     2.4402    -2.7290 C.ar    
  27 C27           -6.1182     1.8683    -1.4873 C.ar    
  28 C28           -5.0666     0.9771    -1.3518 C.ar    
  29 O29           -7.4625     3.2702    -2.6037 O.3     
  30 C30           -8.1012     2.8881    -1.3710 C.3     
  31 O31           -7.0268     2.3402    -0.5845 O.3     
  32 C32            6.9921     0.6577    -2.0583 C.2     
  33 O33            6.2874     1.5806    -2.3922 O.2     
  34 O34            7.6879    -0.0239    -2.9819 O.3     
  35 C35            1.5864     4.0579    -1.0451 C.1     
  36 N36            1.5745     5.1938    -1.0352 N.1     
  37 H37           -0.4524     2.4505    -1.6412 H       
  38 H38            1.8075    -2.0321    -2.1190 H       
  39 H39            2.4345    -2.0501    -0.4533 H       
  40 H40            0.6783    -2.0509    -0.7432 H       
  41 H41           -1.9448     1.4036    -1.8448 H       
  42 H42            4.3618    -0.8116    -0.3251 H       
  43 H43            5.7312     3.3682     1.6338 H       
  44 H44            6.4714     4.5682     0.5475 H       
  45 H45            4.8117     4.1684    -1.1640 H       
  46 H46            3.9142     4.3270     0.3697 H       
  47 H47            5.8140     1.5886     2.3171 H       
  48 H48            6.0664    -0.1190     1.8825 H       
  49 H49            8.4855     0.3352     1.5370 H       
  50 H50            8.2262     2.0348     1.9978 H       
  51 H51            9.0636     0.7096     3.9190 H       
  52 H52            7.4151     1.3071     4.2252 H       
  53 H53            7.6744    -0.3925     3.7644 H       
  54 H54            8.1338     0.2953    -0.2921 H       
  55 H55            6.6923    -0.7340    -0.4684 H       
  56 H56           -2.9756    -0.8298    -3.2325 H       
  57 H57           -3.3606    -1.0164    -1.5047 H       
  58 H58           -3.9297     0.9831    -4.5285 H       
  59 H59           -5.8018     2.5605    -4.7842 H       
  60 H60           -4.8568     0.5319    -0.3904 H       
  61 H61           -8.5320     3.7590    -0.8770 H       
  62 H62           -8.8657     2.1330    -1.5538 H       
  63 H63            7.5930     0.2606    -3.9013 H       
@<TRIPOS>BOND
   1    1    2 ar
   2    1    6 ar
   3    1   37 1
   4    2    3 ar
   5    2    8 1
   6    3    4 ar
   7    3    7 1
   8    4    5 ar
   9    4   11 1
  10    5    6 ar
  11    5   13 1
  12    6   35 1
  13    7   38 1
  14    7   39 1
  15    7   40 1
  16    8    9 am
  17    8   10 2
  18    9   22 1
  19    9   41 1
  20   11   12 1
  21   11   42 1
  22   12   13 2
  23   12   14 1
  24   13   17 1
  25   14   15 1
  26   14   18 1
  27   14   21 1
  28   15   16 1
  29   16   17 1
  30   16   43 1
  31   16   44 1
  32   17   45 1
  33   17   46 1
  34   18   19 1
  35   18   47 1
  36   18   48 1
  37   19   20 1
  38   19   49 1
  39   19   50 1
  40   20   51 1
  41   20   52 1
  42   20   53 1
  43   21   32 1
  44   21   54 1
  45   21   55 1
  46   22   23 1
  47   22   56 1
  48   22   57 1
  49   23   24 ar
  50   23   28 ar
  51   24   25 ar
  52   24   58 1
  53   25   26 ar
  54   25   59 1
  55   26   27 ar
  56   26   29 1
  57   27   28 ar
  58   27   31 1
  59   28   60 1
  60   29   30 1
  61   30   31 1
  62   30   61 1
  63   30   62 1
  64   32   33 2
  65   32   34 1
  66   34   63 1
  67   35   36 3

#	End of record

