#	Name: ASD03730858
#	Creating user name:	WinNT
#	Creation time:	15. 06. 2019 20:44

#	Modifying user name:	WinNT
#	Modification time:	15. 06. 2019 20:44

#	Program:	/corina/corina34_cracker 3.40 0067  02.08.2006

@<TRIPOS>MOLECULE
ASD03730858
  65   71    0    0    0
SMALL
NO_CHARGES


@<TRIPOS>ATOM
   1 C1             1.5573    -1.2864    -2.4137 C.2     
   2 C2             0.7041    -1.1969    -1.2096 C.ar    
   3 C3             1.2056    -0.6325    -0.0354 C.ar    
   4 C4             0.4041    -0.5515     1.0843 C.ar    
   5 C5            -0.8942    -1.0287     1.0455 C.ar    
   6 C6            -1.3974    -1.5891    -0.1148 C.ar    
   7 C7            -0.6081    -1.6709    -1.2436 C.ar    
   8 O8             2.6652    -0.7864    -2.4120 O.2     
   9 N9             1.1089    -1.9273    -3.5112 N.am    
  10 C10            1.9543    -2.0161    -4.7043 C.3     
  11 C11            1.2249    -2.7770    -5.7814 C.ar    
  12 C12            0.2674    -2.1409    -6.5495 C.ar    
  13 C13           -0.4016    -2.8388    -7.5373 C.ar    
  14 C14           -0.1129    -4.1728    -7.7576 C.ar    
  15 C15            0.8450    -4.8085    -6.9903 C.ar    
  16 C16            1.5172    -4.1092    -6.0051 C.ar    
  17 C17           -0.0473    -0.6868    -6.3094 C.3     
  18 F18           -1.0405    -0.2710    -7.2025 F       
  19 F19           -0.5005    -0.5184    -4.9966 F       
  20 F20            1.1070     0.0787    -6.5061 F       
  21 C21            2.6196    -0.1133     0.0088 C.3     
  22 O22            0.0928    -1.7703     6.5327 O.3     
  23 C23            0.0950    -1.6641     7.9686 C.3     
  24 O24            1.4935    -1.6023     8.3051 O.3     
  25 C25            2.1096    -1.0652     7.2111 C.ar    
  26 C26            1.2482    -1.1698     6.1214 C.ar    
  27 C27            3.3557    -0.4852     7.0546 C.ar    
  28 C28            3.7588    -0.0048     5.8123 C.ar    
  29 C29            2.8928    -0.1223     4.7294 C.ar    
  30 C30            1.6474    -0.6946     4.8835 C.ar    
  31 O31            4.9220     0.6087     5.4504 O.3     
  32 C32            3.6136     0.4527     3.5395 C.3     
  33 C33            5.0688     0.5419     4.0188 C.3     
  34 N34            2.9248     0.3575     1.3621 N.am    
  35 C35            3.4778    -0.4129     2.3201 C.2     
  36 C36            3.0735     1.7932     3.1379 C.ar    
  37 C37            2.9244     2.9944     3.7945 C.ar    
  38 C38            2.3780     4.0812     3.1354 C.ar    
  39 C39            1.9815     3.9580     1.8161 C.ar    
  40 C40            2.1280     2.7567     1.1544 C.ar    
  41 C41            2.6774     1.6574     1.8099 C.ar    
  42 O42            3.8025    -1.5770     2.2171 O.2     
  43 H43            0.7909    -0.1151     1.9933 H       
  44 H44           -1.5174    -0.9636     1.9252 H       
  45 H45           -2.4115    -1.9597    -0.1385 H       
  46 H46           -1.0033    -2.1050    -2.1501 H       
  47 H47            0.2263    -2.3298    -3.5111 H       
  48 H48            2.1853    -1.0125    -5.0614 H       
  49 H49            2.8799    -2.5354    -4.4559 H       
  50 H50           -1.1502    -2.3421    -8.1368 H       
  51 H51           -0.6362    -4.7183    -8.5290 H       
  52 H52            1.0702    -5.8506    -7.1622 H       
  53 H53            2.2684    -4.6049    -5.4081 H       
  54 H54            3.3090    -0.9131    -0.2617 H       
  55 H55            2.7259     0.7118    -0.6955 H       
  56 H56           -0.4159    -0.7551     8.2861 H       
  57 H57           -0.3687    -2.5421     8.4182 H       
  58 H58            4.0201    -0.4047     7.9022 H       
  59 H59            0.9819    -0.7725     4.0364 H       
  60 H60            5.5478     1.4433     3.6364 H       
  61 H61            5.6274    -0.3477     3.7280 H       
  62 H62            3.2345     3.0882     4.8247 H       
  63 H63            2.2617     5.0237     3.6497 H       
  64 H64            1.5549     4.8064     1.3017 H       
  65 H65            1.8155     2.6681     0.1244 H       
@<TRIPOS>BOND
   1    1    2 1
   2    1    8 2
   3    1    9 am
   4    2    3 ar
   5    2    7 ar
   6    3    4 ar
   7    3   21 1
   8    4    5 ar
   9    4   43 1
  10    5    6 ar
  11    5   44 1
  12    6    7 ar
  13    6   45 1
  14    7   46 1
  15    9   10 1
  16    9   47 1
  17   10   11 1
  18   10   48 1
  19   10   49 1
  20   11   12 ar
  21   11   16 ar
  22   12   13 ar
  23   12   17 1
  24   13   14 ar
  25   13   50 1
  26   14   15 ar
  27   14   51 1
  28   15   16 ar
  29   15   52 1
  30   16   53 1
  31   17   18 1
  32   17   19 1
  33   17   20 1
  34   21   34 1
  35   21   54 1
  36   21   55 1
  37   22   23 1
  38   22   26 1
  39   23   24 1
  40   23   56 1
  41   23   57 1
  42   24   25 1
  43   25   26 ar
  44   25   27 ar
  45   26   30 ar
  46   27   28 ar
  47   27   58 1
  48   28   29 ar
  49   28   31 1
  50   29   30 ar
  51   29   32 1
  52   30   59 1
  53   31   33 1
  54   32   33 1
  55   32   35 1
  56   32   36 1
  57   33   60 1
  58   33   61 1
  59   34   35 am
  60   34   41 1
  61   35   42 2
  62   36   37 ar
  63   36   41 ar
  64   37   38 ar
  65   37   62 1
  66   38   39 ar
  67   38   63 1
  68   39   40 ar
  69   39   64 1
  70   40   41 ar
  71   40   65 1

#	End of record

