#	Name: ASD02560004
#	Creating user name:	WinNT
#	Creation time:	15. 06. 2019 20:24

#	Modifying user name:	WinNT
#	Modification time:	15. 06. 2019 20:24

#	Program:	/corina/corina34_cracker 3.40 0067  02.08.2006

@<TRIPOS>MOLECULE
ASD02560004
  44   45    0    0    0
SMALL
NO_CHARGES


@<TRIPOS>ATOM
   1 N1             0.0505     1.5085    -0.1956 N.am    
   2 C2            -0.0527     0.1669    -0.2322 C.2     
   3 N3             1.0445    -0.6116    -0.2202 N.am    
   4 C4             2.2935    -0.0551    -0.1704 C.2     
   5 C5             2.4261     1.2881    -0.1329 C.2     
   6 C6             1.2633     2.0956    -0.1459 C.2     
   7 O7             1.3576     3.3093    -0.1128 O.2     
   8 O8            -1.1530    -0.3486    -0.2763 O.2     
   9 C9             3.7934     1.9192    -0.0773 C.3     
  10 C10            4.0231     2.7507    -1.3409 C.3     
  11 C11            3.5154    -0.9371    -0.1569 C.3     
  12 C12            3.8794    -1.2693     1.2672 C.ar    
  13 C13            0.9005    -2.0690    -0.2604 C.3     
  14 O14            0.5255    -2.4744    -1.5784 O.3     
  15 C15            1.6161    -2.5366    -2.4997 C.3     
  16 C16            1.1008    -2.9789    -3.8708 C.3     
  17 C17            3.4438    -2.4525     1.8339 C.ar    
  18 C18            3.7777    -2.7573     3.1402 C.ar    
  19 C19            4.5476    -1.8790     3.8797 C.ar    
  20 C20            4.9840    -0.6962     3.3127 C.ar    
  21 C21            4.6537    -0.3935     2.0050 C.ar    
  22 C22            3.8879     2.8240     1.1529 C.3     
  23 H23           -0.7507     2.0551    -0.2089 H       
  24 H24            4.5515     1.1386    -0.0133 H       
  25 H25            3.2650     3.5313    -1.4049 H       
  26 H26            5.0121     3.2072    -1.3006 H       
  27 H27            3.9558     2.1062    -2.2172 H       
  28 H28            3.3054    -1.8572    -0.7024 H       
  29 H29            4.3458    -0.4147    -0.6318 H       
  30 H30            1.8487    -2.5353     0.0072 H       
  31 H31            0.1313    -2.3778     0.4474 H       
  32 H32            2.0765    -1.5523    -2.5848 H       
  33 H33            2.3547    -3.2534    -2.1407 H       
  34 H34            1.9327    -3.0263    -4.5736 H       
  35 H35            0.6405    -3.9632    -3.7857 H       
  36 H36            0.3623    -2.2621    -4.2299 H       
  37 H37            2.8423    -3.1387     1.2562 H       
  38 H38            3.4368    -3.6814     3.5832 H       
  39 H39            4.8079    -2.1168     4.9006 H       
  40 H40            5.5852    -0.0099     3.8906 H       
  41 H41            4.9946     0.5306     1.5620 H       
  42 H42            3.7243     2.2315     2.0531 H       
  43 H43            4.8769     3.2804     1.1931 H       
  44 H44            3.1298     3.6045     1.0889 H       
@<TRIPOS>BOND
   1    1    2 am
   2    1    6 am
   3    1   23 1
   4    2    3 am
   5    2    8 2
   6    3    4 1
   7    3   13 1
   8    4    5 2
   9    4   11 1
  10    5    6 1
  11    5    9 1
  12    6    7 2
  13    9   10 1
  14    9   22 1
  15    9   24 1
  16   10   25 1
  17   10   26 1
  18   10   27 1
  19   11   12 1
  20   11   28 1
  21   11   29 1
  22   12   17 ar
  23   12   21 ar
  24   13   14 1
  25   13   30 1
  26   13   31 1
  27   14   15 1
  28   15   16 1
  29   15   32 1
  30   15   33 1
  31   16   34 1
  32   16   35 1
  33   16   36 1
  34   17   18 ar
  35   17   37 1
  36   18   19 ar
  37   18   38 1
  38   19   20 ar
  39   19   39 1
  40   20   21 ar
  41   20   40 1
  42   21   41 1
  43   22   42 1
  44   22   43 1
  45   22   44 1

#	End of record

