#	Name: ASD02030492
#	Creating user name:	WinNT
#	Creation time:	15. 06. 2019 20:15

#	Modifying user name:	WinNT
#	Modification time:	15. 06. 2019 20:15

#	Program:	/corina/corina34_cracker 3.40 0067  02.08.2006

@<TRIPOS>MOLECULE
ASD02030492
  55   59    0    0    0
SMALL
NO_CHARGES


@<TRIPOS>ATOM
   1 N1            -0.2317     1.2035     0.7885 N.am    
   2 C2            -0.3140    -0.2634     0.8257 C.3     
   3 C3            -1.4819    -0.6658     1.7347 C.3     
   4 N4            -2.6715     0.1006     1.3378 N.am    
   5 C5            -2.5892     1.5674     1.3007 C.3     
   6 C6            -1.4229     1.9700     0.3971 C.3     
   7 C7             0.9141     1.8346     1.1130 C.2     
   8 C8             2.0609     1.0622     1.6361 C.2     
   9 N9             3.1869     1.5642     2.0955 N.2     
  10 N10            2.1348    -0.2780     1.7318 N.2     
  11 C11            3.3044    -0.5677     2.2423 C.2     
  12 N12            3.9514     0.5949     2.4647 N.pl3   
  13 O13            1.0046     3.0391     0.9754 O.2     
  14 C14           -3.8173    -0.5306     1.0134 C.2     
  15 C15           -3.8534    -2.0039     0.9425 C.ar    
  16 O16           -4.8212     0.1141     0.7791 O.2     
  17 C17           -1.1461     3.4668     0.5522 C.3     
  18 C18           -1.7701     1.6568    -1.0597 C.3     
  19 C19            5.2376     0.7262     3.0053 C.ar    
  20 C20            5.7915     1.9864     3.1837 C.ar    
  21 C21            7.0605     2.1126     3.7177 C.ar    
  22 C22            7.7777     0.9840     4.0735 C.ar    
  23 C23            7.2276    -0.2723     3.8966 C.ar    
  24 C24            5.9582    -0.4040     3.3689 C.ar    
  25 Cl25           7.7548     3.6879     3.9415 Cl      
  26 C26           -4.2196    -2.6417    -0.2480 C.ar    
  27 C27           -4.2498    -4.0331    -0.3041 C.ar    
  28 C28           -3.9177    -4.7766     0.8155 C.ar    
  29 C29           -3.5547    -4.1447     1.9936 C.ar    
  30 C30           -3.5164    -2.7695     2.0628 C.ar    
  31 O31           -4.5830    -2.1471    -1.4640 O.3     
  32 C32           -4.4415    -3.2454    -2.3844 C.3     
  33 O33           -4.6333    -4.4097    -1.5592 O.3     
  34 H34           -0.4851    -0.6458    -0.1806 H       
  35 H35            0.6156    -0.6720     1.2219 H       
  36 H36           -1.6803    -1.7320     1.6251 H       
  37 H37           -1.2321    -0.4424     2.7719 H       
  38 H38           -3.5188     1.9761     0.9044 H       
  39 H39           -2.4181     1.9498     2.3069 H       
  40 H40            3.6820    -1.5578     2.4508 H       
  41 H41           -0.7669     3.6641     1.5549 H       
  42 H42           -0.4049     3.7774    -0.1842 H       
  43 H43           -2.0692     4.0251     0.3964 H       
  44 H44           -2.6612     2.2141    -1.3487 H       
  45 H45           -0.9375     1.9446    -1.7016 H       
  46 H46           -1.9590     0.5887    -1.1666 H       
  47 H47            5.2321     2.8673     2.9053 H       
  48 H48            8.7692     1.0844     4.4899 H       
  49 H49            7.7898    -1.1514     4.1749 H       
  50 H50            5.5293    -1.3856     3.2314 H       
  51 H51           -3.9421    -5.8553     0.7702 H       
  52 H52           -3.2973    -4.7334     2.8616 H       
  53 H53           -3.2323    -2.2827     2.9840 H       
  54 H54           -5.2055    -3.1957    -3.1603 H       
  55 H55           -3.4451    -3.2489    -2.8262 H       
@<TRIPOS>BOND
   1    1    2 1
   2    1    7 am
   3    1    6 1
   4    2    3 1
   5    2   34 1
   6    2   35 1
   7    3    4 1
   8    3   36 1
   9    3   37 1
  10    4    5 1
  11    4   14 am
  12    5    6 1
  13    5   38 1
  14    5   39 1
  15    6   17 1
  16    6   18 1
  17    7    8 1
  18    7   13 2
  19    8    9 2
  20    8   10 1
  21    9   12 1
  22   10   11 2
  23   11   12 1
  24   11   40 1
  25   12   19 1
  26   14   15 1
  27   14   16 2
  28   15   26 ar
  29   15   30 ar
  30   17   41 1
  31   17   42 1
  32   17   43 1
  33   18   44 1
  34   18   45 1
  35   18   46 1
  36   19   20 ar
  37   19   24 ar
  38   20   21 ar
  39   20   47 1
  40   21   22 ar
  41   21   25 1
  42   22   23 ar
  43   22   48 1
  44   23   24 ar
  45   23   49 1
  46   24   50 1
  47   26   27 ar
  48   26   31 1
  49   27   28 ar
  50   27   33 1
  51   28   29 ar
  52   28   51 1
  53   29   30 ar
  54   29   52 1
  55   30   53 1
  56   31   32 1
  57   32   33 1
  58   32   54 1
  59   32   55 1

#	End of record

