#	Name: ASD01911711
#	Creating user name:	WinNT
#	Creation time:	15. 06. 2019 19:58

#	Modifying user name:	WinNT
#	Modification time:	15. 06. 2019 19:58

#	Program:	/corina/corina34_cracker 3.40 0067  02.08.2006

@<TRIPOS>MOLECULE
ASD01911711
  55   58    0    0    0
SMALL
NO_CHARGES


@<TRIPOS>ATOM
   1 N1            -0.0154     1.3435     0.0184 N.am    
   2 C2             0.0021    -0.0041     0.0020 C.2     
   3 C3             1.2748    -0.7187    -0.1246 C.2     
   4 C4             1.4470    -2.0747    -0.0500 C.2     
   5 S5             2.8518     0.0159    -0.4072 S.3     
   6 C6             3.5963    -1.5802    -0.3909 C.2     
   7 N7             2.6740    -2.4890    -0.1928 N.2     
   8 C8             4.9923    -1.8438    -0.5711 C.1     
   9 C9             6.1367    -2.0599    -0.7188 C.1     
  10 C10            7.5327    -2.3234    -0.8990 C.ar    
  11 C11            8.0097    -3.6374    -0.8661 C.ar    
  12 C12            9.3552    -3.8832    -1.0409 C.ar    
  13 C13           10.2329    -2.8333    -1.2481 C.ar    
  14 C14            9.7684    -1.5301    -1.2820 C.ar    
  15 C15            8.4248    -1.2686    -1.1146 C.ar    
  16 O16           -1.0395    -0.6273     0.0924 O.2     
  17 C17           -1.2234     2.1851     0.0397 C.3     
  18 C18            1.1674     2.2139     0.0243 C.3     
  19 C19            0.6778     3.6717     0.1019 C.3     
  20 C20           -0.7761     3.5305     0.6522 C.3     
  21 C21            0.4728     4.2090    -1.3258 C.3     
  22 N22           -0.8803     4.7729    -1.4054 N.am    
  23 C23           -1.5123     4.6763    -0.0748 C.3     
  24 C24           -1.4495     5.2934    -2.5106 C.2     
  25 O25           -0.8315     5.3218    -3.5565 O.2     
  26 O26           -2.7030     5.7819    -2.4559 O.3     
  27 C27           -3.2522     6.3270    -3.6846 C.3     
  28 C28           -3.2824     5.2367    -4.7575 C.3     
  29 C29           -4.6743     6.8299    -3.4284 C.3     
  30 C30           -2.3787     7.4887    -4.1624 C.3     
  31 H31            0.6236    -2.7534     0.1160 H       
  32 H32            7.3261    -4.4576    -0.7038 H       
  33 H33            9.7252    -4.8975    -1.0157 H       
  34 H34           11.2857    -3.0321    -1.3836 H       
  35 H35           10.4595    -0.7160    -1.4437 H       
  36 H36            8.0638    -0.2511    -1.1412 H       
  37 H37           -1.5954     2.3369    -0.9736 H       
  38 H38           -1.9927     1.7253     0.6600 H       
  39 H39            1.7889     1.9865     0.8904 H       
  40 H40            1.7400     2.0650    -0.8912 H       
  41 H41            1.3129     4.3043     0.7221 H       
  42 H42           -0.8468     3.5641     1.7394 H       
  43 H43            1.2088     4.9846    -1.5373 H       
  44 H44            0.5764     3.3959    -2.0443 H       
  45 H45           -2.5714     4.4398    -0.1769 H       
  46 H46           -1.3853     5.6110     0.4714 H       
  47 H47           -3.9046     4.4090    -4.4171 H       
  48 H48           -3.6947     5.6458    -5.6798 H       
  49 H49           -2.2692     4.8784    -4.9400 H       
  50 H50           -4.6528     7.6066    -2.6640 H       
  51 H51           -5.0866     7.2391    -4.3507 H       
  52 H52           -5.2966     6.0023    -3.0880 H       
  53 H53           -1.3656     7.1304    -4.3449 H       
  54 H54           -2.7910     7.8979    -5.0847 H       
  55 H55           -2.3572     8.2654    -3.3980 H       
@<TRIPOS>BOND
   1    1    2 am
   2    1   18 1
   3    1   17 1
   4    2    3 1
   5    2   16 2
   6    3    4 2
   7    3    5 1
   8    4    7 1
   9    4   31 1
  10    5    6 1
  11    6    7 2
  12    6    8 1
  13    8    9 3
  14    9   10 1
  15   10   11 ar
  16   10   15 ar
  17   11   12 ar
  18   11   32 1
  19   12   13 ar
  20   12   33 1
  21   13   14 ar
  22   13   34 1
  23   14   15 ar
  24   14   35 1
  25   15   36 1
  26   17   20 1
  27   17   37 1
  28   17   38 1
  29   18   19 1
  30   18   39 1
  31   18   40 1
  32   19   20 1
  33   19   21 1
  34   19   41 1
  35   20   23 1
  36   20   42 1
  37   21   22 1
  38   21   43 1
  39   21   44 1
  40   22   23 1
  41   22   24 am
  42   23   45 1
  43   23   46 1
  44   24   25 2
  45   24   26 1
  46   26   27 1
  47   27   28 1
  48   27   29 1
  49   27   30 1
  50   28   47 1
  51   28   48 1
  52   28   49 1
  53   29   50 1
  54   29   51 1
  55   29   52 1
  56   30   53 1
  57   30   54 1
  58   30   55 1

#	End of record

