#	Name: ASD01914085
#	Creating user name:	WinNT
#	Creation time:	15. 06. 2019 20:02

#	Modifying user name:	WinNT
#	Modification time:	15. 06. 2019 20:02

#	Program:	/corina/corina34_cracker 3.40 0067  02.08.2006

@<TRIPOS>MOLECULE
ASD01914085
  52   54    0    0    0
SMALL
NO_CHARGES


@<TRIPOS>ATOM
   1 C1            -0.0166     1.3744     0.0096 C.ar    
   2 C2             0.0021    -0.0041     0.0020 C.ar    
   3 C3             2.4206     0.0438    -0.0208 C.ar    
   4 C4             2.3830     1.4293    -0.0130 C.ar    
   5 O5             3.6121    -0.6056    -0.0352 O.3     
   6 C6             4.7911     0.2020    -0.0416 C.3     
   7 C7             6.0083    -0.6863    -0.0575 C.ar    
   8 N8             7.2095    -0.1409    -0.0656 N.ar    
   9 C9             8.3051    -0.8715    -0.0796 C.ar    
  10 C10            8.2288    -2.2646    -0.0868 C.ar    
  11 C11            6.9676    -2.8730    -0.0785 C.ar    
  12 C12            5.8479    -2.0605    -0.0578 C.ar    
  13 C13            9.4588    -3.0847    -0.1034 C.2     
  14 N14           10.6669    -2.4874    -0.1117 N.am    
  15 O15            9.3805    -4.2977    -0.1096 O.2     
  16 C16            1.2222    -0.6838    -0.0133 C.ar    
  17 C17           11.8858    -3.3000    -0.1282 C.3     
  18 C18            1.1694     2.0892     0.0021 C.ar    
  19 C19            1.2489    -2.1155    -0.0207 C.1     
  20 C20           13.0294    -2.4916    -0.7444 C.3     
  21 C21           14.3023    -3.3403    -0.7616 C.3     
  22 C22           15.4459    -2.5320    -1.3777 C.3     
  23 C23           15.0774    -2.1362    -2.8090 C.3     
  24 C24           13.8045    -1.2875    -2.7918 C.3     
  25 C25           12.6609    -2.0959    -2.1756 C.3     
  26 C26           12.2543    -3.6957     1.3030 C.3     
  27 N27            1.2700    -3.2513    -0.0267 N.1     
  28 H28           -0.9605     1.8992     0.0169 H       
  29 H29           -0.9253    -0.5575     0.0082 H       
  30 H30            3.3037     1.9938    -0.0184 H       
  31 H31            4.7923     0.8360    -0.9283 H       
  32 H32            4.8086     0.8264     0.8516 H       
  33 H33            9.2709    -0.3882    -0.0858 H       
  34 H34            6.8715    -3.9487    -0.0838 H       
  35 H35            4.8589    -2.4945    -0.0508 H       
  36 H36           10.7294    -1.5194    -0.1068 H       
  37 H37           11.7154    -4.1986    -0.7212 H       
  38 H38            1.1454     3.1689     0.0078 H       
  39 H39           13.1998    -1.5931    -0.1514 H       
  40 H40           14.5649    -3.6222     0.2581 H       
  41 H41           14.1319    -4.2389    -1.3546 H       
  42 H42           15.6163    -1.6334    -0.7847 H       
  43 H43           16.3528    -3.1366    -1.3900 H       
  44 H44           15.8921    -1.5603    -3.2479 H       
  45 H45           14.9070    -3.0348    -3.4019 H       
  46 H46           13.9749    -0.3890    -2.1988 H       
  47 H47           13.5419    -1.0056    -3.8114 H       
  48 H48           12.4905    -2.9945    -2.7686 H       
  49 H49           11.7540    -1.4913    -2.1634 H       
  50 H50           12.4247    -2.7971     1.8960 H       
  51 H51           11.4396    -4.2716     1.7420 H       
  52 H52           13.1612    -4.3003     1.2908 H       
@<TRIPOS>BOND
   1    1    2 ar
   2    1   18 ar
   3    1   28 1
   4    2   16 ar
   5    2   29 1
   6    3    4 ar
   7    3    5 1
   8    3   16 ar
   9    4   18 ar
  10    4   30 1
  11    5    6 1
  12    6    7 1
  13    6   31 1
  14    6   32 1
  15    7    8 ar
  16    7   12 ar
  17    8    9 ar
  18    9   10 ar
  19    9   33 1
  20   10   11 ar
  21   10   13 1
  22   11   12 ar
  23   11   34 1
  24   12   35 1
  25   13   14 am
  26   13   15 2
  27   14   17 1
  28   14   36 1
  29   16   19 1
  30   17   20 1
  31   17   26 1
  32   17   37 1
  33   18   38 1
  34   19   27 3
  35   20   21 1
  36   20   25 1
  37   20   39 1
  38   21   22 1
  39   21   40 1
  40   21   41 1
  41   22   23 1
  42   22   42 1
  43   22   43 1
  44   23   24 1
  45   23   44 1
  46   23   45 1
  47   24   25 1
  48   24   46 1
  49   24   47 1
  50   25   48 1
  51   25   49 1
  52   26   50 1
  53   26   51 1
  54   26   52 1

#	End of record

