#	Name: ASD01810273
#	Creating user name:	WinNT
#	Creation time:	15. 06. 2019 19:24

#	Modifying user name:	WinNT
#	Modification time:	15. 06. 2019 19:24

#	Program:	/corina/corina34_cracker 3.40 0067  02.08.2006

@<TRIPOS>MOLECULE
ASD01810273
  44   47    0    0    0
SMALL
NO_CHARGES


@<TRIPOS>ATOM
   1 C1             1.1568     2.2519    -0.5140 C.ar    
   2 C2             0.7800     0.9168    -0.4989 C.ar    
   3 C3             1.7223    -0.0793    -0.3473 C.ar    
   4 C4             3.0694     0.2528    -0.2072 C.ar    
   5 C5             3.4464     1.6060    -0.2231 C.ar    
   6 C6             2.4819     2.6019    -0.3772 C.ar    
   7 N7             4.0215    -0.7326    -0.0539 N.pl3   
   8 C8             5.3260    -0.4656     0.0855 C.2     
   9 C9             5.8167     0.8248     0.0860 C.2     
  10 C10            4.8743     1.9439    -0.0741 C.2     
  11 O11            5.2573     3.1006    -0.0806 O.2     
  12 C12            3.5871    -2.1316    -0.0427 C.3     
  13 C13            3.4445    -2.6248    -1.4595 C.ar    
  14 C14            4.5276    -2.5710    -2.3214 C.ar    
  15 C15            4.4008    -3.0221    -3.6223 C.ar    
  16 C16            3.1818    -3.5310    -4.0639 C.ar    
  17 C17            2.0963    -3.5826    -3.1914 C.ar    
  18 C18            2.2344    -3.1348    -1.8934 C.ar    
  19 C19            3.0393    -4.0162    -5.4590 C.ar    
  20 C20            7.2562     1.0767     0.2427 C.2     
  21 O21            7.7232     2.3413     0.2416 O.3     
  22 O22            8.0257     0.1447     0.3734 O.2     
  23 C23            1.8199    -4.5253    -5.9011 C.ar    
  24 C24            1.6929    -4.9753    -7.1997 C.ar    
  25 C25            2.7735    -4.9218    -8.0616 C.ar    
  26 C26            3.9862    -4.4174    -7.6281 C.ar    
  27 C27            4.1227    -3.9590    -6.3334 C.ar    
  28 F28            1.3404    -1.3752    -0.3341 F       
  29 F29            5.7089    -2.0769    -1.8906 F       
  30 H30            0.4080     3.0203    -0.6380 H       
  31 H31           -0.2621     0.6545    -0.6067 H       
  32 H32            2.7727     3.6419    -0.3896 H       
  33 H33            6.0174    -1.2870     0.2018 H       
  34 H34            4.3269    -2.7376     0.4803 H       
  35 H35            2.6271    -2.2099     0.4676 H       
  36 H36            5.2450    -2.9795    -4.2946 H       
  37 H37            1.1492    -3.9765    -3.5296 H       
  38 H38            1.3932    -3.1751    -1.2172 H       
  39 H39            8.6774     2.4570     0.3477 H       
  40 H40            0.9758    -4.5682    -5.2287 H       
  41 H41            0.7483    -5.3701    -7.5434 H       
  42 H42            2.6699    -5.2756    -9.0767 H       
  43 H43            4.8267    -4.3779    -8.3052 H       
  44 H44            5.0700    -3.5653    -5.9959 H       
@<TRIPOS>BOND
   1    1    2 ar
   2    1    6 ar
   3    1   30 1
   4    2    3 ar
   5    2   31 1
   6    3    4 ar
   7    3   28 1
   8    4    5 ar
   9    4    7 1
  10    5    6 ar
  11    5   10 1
  12    6   32 1
  13    7    8 1
  14    7   12 1
  15    8    9 2
  16    8   33 1
  17    9   10 1
  18    9   20 1
  19   10   11 2
  20   12   13 1
  21   12   34 1
  22   12   35 1
  23   13   14 ar
  24   13   18 ar
  25   14   15 ar
  26   14   29 1
  27   15   16 ar
  28   15   36 1
  29   16   17 ar
  30   16   19 1
  31   17   18 ar
  32   17   37 1
  33   18   38 1
  34   19   23 ar
  35   19   27 ar
  36   20   21 1
  37   20   22 2
  38   21   39 1
  39   23   24 ar
  40   23   40 1
  41   24   25 ar
  42   24   41 1
  43   25   26 ar
  44   25   42 1
  45   26   27 ar
  46   26   43 1
  47   27   44 1

#	End of record

