#	Name: ASD01870026
#	Creating user name:	WinNT
#	Creation time:	15. 06. 2019 19:38

#	Modifying user name:	WinNT
#	Modification time:	15. 06. 2019 19:38

#	Program:	/corina/corina34_cracker 3.40 0067  02.08.2006

@<TRIPOS>MOLECULE
ASD01870026
  48   51    0    0    0
SMALL
NO_CHARGES


@<TRIPOS>ATOM
   1 C1            -0.0165     1.3676     0.0096 C.ar    
   2 C2             0.0021    -0.0041     0.0020 C.ar    
   3 N3            -1.1372    -0.6888    -0.0020 N.ar    
   4 C4            -2.3208    -0.0996     0.0061 C.ar    
   5 C5            -2.4181     1.2860     0.0191 C.ar    
   6 C6            -1.2494     2.0360     0.0189 C.ar    
   7 C7             1.2361     2.2019     0.0021 C.3     
   8 C8             2.4428     1.3636     0.4198 C.3     
   9 C9             2.4583     0.0849    -0.4260 C.3     
  10 C10            1.2864    -0.7935     0.0064 C.3     
  11 N11           -1.3007     3.4270     0.0316 N.pl3   
  12 C12           -2.5955     4.1122     0.0453 C.3     
  13 C13           -2.4653     5.5190     0.6668 C.3     
  14 C14           -3.4328     6.3863    -0.1097 C.ar    
  15 C15           -3.7774     5.7588    -1.2920 C.ar    
  16 C16           -3.0650     4.4268    -1.3910 C.3     
  17 C17           -3.9689     7.6266     0.1940 C.ar    
  18 C18           -4.8464     8.2375    -0.6801 C.ar    
  19 C19           -5.1911     7.6098    -1.8627 C.ar    
  20 C20           -4.6572     6.3732    -2.1676 C.ar    
  21 S21           -3.7854    -1.0791    -0.0000 S.3     
  22 C22           -3.1420    -2.7751    -0.0176 C.3     
  23 C23           -4.3098    -3.7635    -0.0245 C.3     
  24 O24           -3.8030    -5.0996    -0.0383 O.3     
  25 H25           -3.3834     1.7703     0.0272 H       
  26 H26            1.4009     2.5938    -1.0016 H       
  27 H27            1.1182     3.0334     0.6970 H       
  28 H28            3.3593     1.9283     0.2485 H       
  29 H29            2.3624     1.1047     1.4755 H       
  30 H30            2.3555     0.3410    -1.4805 H       
  31 H31            3.3953    -0.4489    -0.2672 H       
  32 H32            1.4724    -1.1717     1.0117 H       
  33 H33            1.1940    -1.6339    -0.6816 H       
  34 H34           -0.4791     3.9427     0.0314 H       
  35 H35           -3.3396     3.5205     0.5785 H       
  36 H36           -2.7420     5.4940     1.7208 H       
  37 H37           -1.4472     5.8909     0.5509 H       
  38 H38           -2.2083     4.5050    -2.0603 H       
  39 H39           -3.7512     3.6561    -1.7420 H       
  40 H40           -3.7002     8.1176     1.1177 H       
  41 H41           -5.2633     9.2044    -0.4399 H       
  42 H42           -5.8773     8.0860    -2.5474 H       
  43 H43           -4.9269     5.8834    -3.0916 H       
  44 H44           -2.5346    -2.9240    -0.9103 H       
  45 H45           -2.5308    -2.9410     0.8696 H       
  46 H46           -4.9172    -3.6146     0.8683 H       
  47 H47           -4.9210    -3.5976    -0.9116 H       
  48 H48           -4.4894    -5.7806    -0.0433 H       
@<TRIPOS>BOND
   1    1    2 ar
   2    1    7 1
   3    1    6 ar
   4    2    3 ar
   5    2   10 1
   6    3    4 ar
   7    4    5 ar
   8    4   21 1
   9    5    6 ar
  10    5   25 1
  11    6   11 1
  12    7    8 1
  13    7   26 1
  14    7   27 1
  15    8    9 1
  16    8   28 1
  17    8   29 1
  18    9   10 1
  19    9   30 1
  20    9   31 1
  21   10   32 1
  22   10   33 1
  23   11   12 1
  24   11   34 1
  25   12   13 1
  26   12   16 1
  27   12   35 1
  28   13   14 1
  29   13   36 1
  30   13   37 1
  31   14   15 ar
  32   14   17 ar
  33   15   16 1
  34   15   20 ar
  35   16   38 1
  36   16   39 1
  37   17   18 ar
  38   17   40 1
  39   18   19 ar
  40   18   41 1
  41   19   20 ar
  42   19   42 1
  43   20   43 1
  44   21   22 1
  45   22   23 1
  46   22   44 1
  47   22   45 1
  48   23   24 1
  49   23   46 1
  50   23   47 1
  51   24   48 1

#	End of record

