#	Name: ASD04591083
#	Creating user name:	WinNT
#	Creation time:	15. 06. 2019 20:52

#	Modifying user name:	WinNT
#	Modification time:	15. 06. 2019 20:52

#	Program:	/corina/corina34_cracker 3.40 0067  02.08.2006

@<TRIPOS>MOLECULE
ASD04591083
  70   75    0    0    0
SMALL
NO_CHARGES


@<TRIPOS>ATOM
   1 N1            -2.3782    -2.7058     0.0204 N.ar    
   2 C2            -1.2117    -2.0738     0.0040 C.ar    
   3 N3            -0.0573    -2.7202    -0.0182 N.ar    
   4 C4            -0.0259    -4.0495    -0.0245 C.ar    
   5 C5            -1.2486    -4.7504    -0.0070 C.ar    
   6 C6            -2.4370    -4.0273     0.0156 C.ar    
   7 N7             0.9980    -4.9638    -0.0457 N.pl3   
   8 C8             0.4950    -6.2534    -0.0428 C.ar    
   9 C9            -0.9092    -6.1791    -0.0189 C.ar    
  10 C10            1.0915    -7.5075    -0.0583 C.ar    
  11 N11            0.3552    -8.6000    -0.0506 N.ar    
  12 C12           -0.9655    -8.5647    -0.0283 C.ar    
  13 C13           -1.6436    -7.3644    -0.0113 C.ar    
  14 N14           -1.2019    -0.6887     0.0098 N.pl3   
  15 C15           -2.4013     0.0175    -0.0802 C.ar    
  16 N16           -3.5340    -0.6390    -0.2721 N.ar    
  17 C17           -4.6918    -0.0124    -0.3634 C.ar    
  18 C18           -4.7605     1.3688    -0.2608 C.ar    
  19 C19           -3.5874     2.0945    -0.0583 C.ar    
  20 C20           -2.3937     1.4030     0.0384 C.ar    
  21 N21           -5.9924     2.0264    -0.3597 N.3     
  22 C22            2.4226    -4.6227    -0.0686 C.3     
  23 C23           -6.2398     2.8610     0.8230 C.3     
  24 C24            2.7454    -3.7914    -1.3225 C.3     
  25 C25            3.2821    -2.4334    -0.8249 C.3     
  26 C26            3.8153    -2.7341     0.5979 C.3     
  27 C27            2.7744    -3.7409     1.1474 C.3     
  28 C28           -7.0849     1.0682    -0.5713 C.3     
  29 C29           -8.3902     1.8275    -0.8194 C.3     
  30 C30           -8.6944     2.7182     0.3884 C.3     
  31 C31           -7.5200     3.6738     0.6165 C.3     
  32 N32           -9.9154     3.4934     0.1316 N.3     
  33 C33          -10.3040     4.2712     1.3157 C.3     
  34 C34          -11.6984     4.8634     1.1019 C.3     
  35 C35           -9.7493     4.3648    -1.0394 C.3     
  36 O36          -12.6562     3.8066     1.0128 O.3     
  37 H37           -3.3898    -4.5356     0.0290 H       
  38 H38            2.1683    -7.5879    -0.0770 H       
  39 H39           -1.5222    -9.4902    -0.0233 H       
  40 H40           -2.7232    -7.3426     0.0072 H       
  41 H41           -0.3610    -0.2099     0.0765 H       
  42 H42           -5.5960    -0.5817    -0.5203 H       
  43 H43           -3.6110     3.1710     0.0253 H       
  44 H44           -1.4660     1.9332     0.1955 H       
  45 H45            3.0241    -5.5316    -0.0581 H       
  46 H46           -6.3517     2.2238     1.7002 H       
  47 H47           -5.3992     3.5388     0.9714 H       
  48 H48            3.5042    -4.2965    -1.9202 H       
  49 H49            1.8422    -3.6418    -1.9141 H       
  50 H50            4.0891    -2.0831    -1.4685 H       
  51 H51            2.4790    -1.6977    -0.7837 H       
  52 H52            4.8050    -3.1884     0.5516 H       
  53 H53            3.8331    -1.8278     1.2033 H       
  54 H54            1.8892    -3.2163     1.5070 H       
  55 H55            3.2107    -4.3447     1.9430 H       
  56 H56           -6.8580     0.4439    -1.4356 H       
  57 H57           -7.1928     0.4394     0.3124 H       
  58 H58           -8.2876     2.4461    -1.7110 H       
  59 H59           -9.2038     1.1161    -0.9610 H       
  60 H60           -8.8355     2.0969     1.2728 H       
  61 H61           -7.7118     4.2815     1.5008 H       
  62 H62           -7.4037     4.3214    -0.2525 H       
  63 H63          -10.3157     3.6205     2.1900 H       
  64 H64           -9.5870     5.0772     1.4723 H       
  65 H65          -11.9502     5.5121     1.9408 H       
  66 H66          -11.7095     5.4426     0.1786 H       
  67 H67           -9.5306     3.7563    -1.9169 H       
  68 H68          -10.6678     4.9272    -1.2069 H       
  69 H69           -8.9262     5.0573    -0.8631 H       
  70 H70          -13.5644     4.1094     0.8768 H       
@<TRIPOS>BOND
   1    1    2 ar
   2    1    6 ar
   3    2    3 ar
   4    2   14 1
   5    3    4 ar
   6    4    5 ar
   7    4    7 1
   8    5    6 ar
   9    5    9 1
  10    6   37 1
  11    7    8 1
  12    7   22 1
  13    8    9 ar
  14    8   10 ar
  15    9   13 ar
  16   10   11 ar
  17   10   38 1
  18   11   12 ar
  19   12   13 ar
  20   12   39 1
  21   13   40 1
  22   14   15 1
  23   14   41 1
  24   15   16 ar
  25   15   20 ar
  26   16   17 ar
  27   17   18 ar
  28   17   42 1
  29   18   19 ar
  30   18   21 1
  31   19   20 ar
  32   19   43 1
  33   20   44 1
  34   21   28 1
  35   21   23 1
  36   22   24 1
  37   22   27 1
  38   22   45 1
  39   23   31 1
  40   23   46 1
  41   23   47 1
  42   24   25 1
  43   24   48 1
  44   24   49 1
  45   25   26 1
  46   25   50 1
  47   25   51 1
  48   26   27 1
  49   26   52 1
  50   26   53 1
  51   27   54 1
  52   27   55 1
  53   28   29 1
  54   28   56 1
  55   28   57 1
  56   29   30 1
  57   29   58 1
  58   29   59 1
  59   30   31 1
  60   30   32 1
  61   30   60 1
  62   31   61 1
  63   31   62 1
  64   32   35 1
  65   32   33 1
  66   33   34 1
  67   33   63 1
  68   33   64 1
  69   34   36 1
  70   34   65 1
  71   34   66 1
  72   35   67 1
  73   35   68 1
  74   35   69 1
  75   36   70 1

#	End of record

