#	Name: ASD01911206
#	Creating user name:	WinNT
#	Creation time:	15. 06. 2019 19:57

#	Modifying user name:	WinNT
#	Modification time:	15. 06. 2019 19:57

#	Program:	/corina/corina34_cracker 3.40 0067  02.08.2006

@<TRIPOS>MOLECULE
ASD01911206
  45   47    0    0    0
SMALL
NO_CHARGES


@<TRIPOS>ATOM
   1 C1            -0.6085     1.5018     0.6371 C.ar    
   2 N2            -0.4804     0.2006     0.4971 N.ar    
   3 C3             0.5437    -0.3318    -0.1589 C.ar    
   4 C4             1.5230     0.4820    -0.7235 C.ar    
   5 C5             1.4136     1.8576    -0.5915 C.ar    
   6 C6             0.3283     2.3711     0.1008 C.ar    
   7 C7             0.6459    -1.8036    -0.2910 C.2     
   8 N8            -0.2983    -2.5963     0.2535 N.am    
   9 C9            -0.2521    -3.9796     0.0510 C.ar    
  10 C10           -1.4246    -4.7236     0.0609 C.ar    
  11 C11           -1.3761    -6.0893    -0.1398 C.ar    
  12 C12           -0.1608    -6.7162    -0.3508 C.ar    
  13 C13            1.0094    -5.9771    -0.3607 C.ar    
  14 C14            0.9662    -4.6107    -0.1663 C.ar    
  15 C15           -2.7486    -4.0417     0.2911 C.3     
  16 N16           -3.1992    -3.4168    -0.9550 N.am    
  17 O17            1.5813    -2.2963    -0.8904 O.2     
  18 Cl18          -0.1035    -8.4328    -0.6028 Cl      
  19 C19           -3.9636    -4.1127    -1.8198 C.2     
  20 C20           -4.4986    -3.4529    -3.0299 C.ar    
  21 C21           -3.6939    -2.5834    -3.7675 C.ar    
  22 C22           -4.1992    -1.9701    -4.8968 C.ar    
  23 C23           -5.5014    -2.2160    -5.2976 C.ar    
  24 C24           -6.3046    -3.0773    -4.5698 C.ar    
  25 C25           -5.8084    -3.7017    -3.4424 C.ar    
  26 O26           -4.2132    -5.2828    -1.6048 O.2     
  27 C27           -2.8189    -2.0356    -1.2611 C.3     
  28 Cl28          -7.9365    -3.3786    -5.0795 Cl      
  29 Cl29          -3.1998    -0.8881    -5.8156 Cl      
  30 H30           -1.4577     1.8988     1.1735 H       
  31 H31            2.3559     0.0475    -1.2562 H       
  32 H32            2.1572     2.5142    -1.0184 H       
  33 H33            0.2137     3.4383     0.2211 H       
  34 H34           -1.0099    -2.2076     0.7859 H       
  35 H35           -2.2877    -6.6685    -0.1318 H       
  36 H36            1.9568    -6.4689    -0.5249 H       
  37 H37            1.8795    -4.0344    -0.1745 H       
  38 H38           -3.4846    -4.7773     0.6156 H       
  39 H39           -2.6349    -3.2777     1.0602 H       
  40 H40           -2.6782    -2.3902    -3.4555 H       
  41 H41           -5.8923    -1.7338    -6.1814 H       
  42 H42           -6.4358    -4.3736    -2.8756 H       
  43 H43           -1.9235    -2.0345    -1.8828 H       
  44 H44           -3.6325    -1.5445    -1.7949 H       
  45 H45           -2.6176    -1.5000    -0.3333 H       
@<TRIPOS>BOND
   1    1    2 ar
   2    1    6 ar
   3    1   30 1
   4    2    3 ar
   5    3    4 ar
   6    3    7 1
   7    4    5 ar
   8    4   31 1
   9    5    6 ar
  10    5   32 1
  11    6   33 1
  12    7    8 am
  13    7   17 2
  14    8    9 1
  15    8   34 1
  16    9   10 ar
  17    9   14 ar
  18   10   11 ar
  19   10   15 1
  20   11   12 ar
  21   11   35 1
  22   12   13 ar
  23   12   18 1
  24   13   14 ar
  25   13   36 1
  26   14   37 1
  27   15   16 1
  28   15   38 1
  29   15   39 1
  30   16   19 am
  31   16   27 1
  32   19   20 1
  33   19   26 2
  34   20   21 ar
  35   20   25 ar
  36   21   22 ar
  37   21   40 1
  38   22   23 ar
  39   22   29 1
  40   23   24 ar
  41   23   41 1
  42   24   25 ar
  43   24   28 1
  44   25   42 1
  45   27   43 1
  46   27   44 1
  47   27   45 1

#	End of record

