#	Name: ASD01882914
#	Creating user name:	WinNT
#	Creation time:	15. 06. 2019 19:45

#	Modifying user name:	WinNT
#	Modification time:	15. 06. 2019 19:45

#	Program:	/corina/corina34_cracker 3.40 0067  02.08.2006

@<TRIPOS>MOLECULE
ASD01882914
  34   34    0    0    0
SMALL
NO_CHARGES


@<TRIPOS>ATOM
   1 C1            -0.0173     1.4278     0.0099 C.2     
   2 C2             0.0021    -0.0041     0.0020 C.1     
   3 C3             0.0180    -1.1779    -0.0044 C.1     
   4 C4             0.0380    -2.6498    -0.0125 C.3     
   5 C5            -1.3974    -3.1794    -0.0017 C.3     
   6 O6             1.0268     2.0497     0.0033 O.2     
   7 O7            -1.1938     2.0858     0.0190 O.3     
   8 O8            -1.3780    -4.6082    -0.0095 O.3     
   9 C9            -2.6754    -5.2071    -0.0004 C.3     
  10 C10           -2.5376    -6.7258    -0.1356 C.3     
  11 C11           -3.9278    -7.3652    -0.0645 C.3     
  12 C12           -4.5987    -6.9572     1.2507 C.3     
  13 C13           -4.6569    -5.4296     1.3324 C.3     
  14 O14           -3.3345    -4.8976     1.2292 O.3     
  15 C15           -1.1375     3.5367     0.0267 C.3     
  16 C16           -2.5591     4.1022     0.0365 C.3     
  17 H17            0.5481    -3.0013    -0.9093 H       
  18 H18            0.5651    -3.0109     0.8705 H       
  19 H19           -1.9076    -2.8278     0.8951 H       
  20 H20           -1.9246    -2.8183    -0.8847 H       
  21 H21           -3.2606    -4.8195    -0.8343 H       
  22 H22           -2.0749    -6.9658    -1.0929 H       
  23 H23           -1.9185    -7.1091     0.6755 H       
  24 H24           -4.5312    -7.0201    -0.9040 H       
  25 H25           -3.8325    -8.4503    -0.1040 H       
  26 H26           -5.6099    -7.3626     1.2849 H       
  27 H27           -4.0212    -7.3451     2.0898 H       
  28 H28           -5.2682    -5.0449     0.5161 H       
  29 H29           -5.0946    -5.1330     2.2856 H       
  30 H30           -0.6057     3.8750     0.9160 H       
  31 H31           -0.6141     3.8847    -0.8639 H       
  32 H32           -2.5168     5.1914     0.0422 H       
  33 H33           -3.0908     3.7639    -0.8528 H       
  34 H34           -3.0824     3.7543     0.9271 H       
@<TRIPOS>BOND
   1    1    2 1
   2    1    6 2
   3    1    7 1
   4    2    3 3
   5    3    4 1
   6    4    5 1
   7    4   17 1
   8    4   18 1
   9    5    8 1
  10    5   19 1
  11    5   20 1
  12    7   15 1
  13    8    9 1
  14    9   10 1
  15    9   14 1
  16    9   21 1
  17   10   11 1
  18   10   22 1
  19   10   23 1
  20   11   12 1
  21   11   24 1
  22   11   25 1
  23   12   13 1
  24   12   26 1
  25   12   27 1
  26   13   14 1
  27   13   28 1
  28   13   29 1
  29   15   16 1
  30   15   30 1
  31   15   31 1
  32   16   32 1
  33   16   33 1
  34   16   34 1

#	End of record

