#	Name: ASD08150085
#	Creating user name:	WinNT
#	Creation time:	15. 06. 2019 21:15

#	Modifying user name:	WinNT
#	Modification time:	15. 06. 2019 21:15

#	Program:	/corina/corina34_cracker 3.40 0067  02.08.2006

@<TRIPOS>MOLECULE
ASD08150085
  48   50    0    0    0
SMALL
NO_CHARGES


@<TRIPOS>ATOM
   1 O1            -0.0161     1.3334     0.0094 O.3     
   2 C2             0.0021    -0.0041     0.0020 C.2     
   3 N3             1.2348    -0.5294    -0.0126 N.am    
   4 C4             2.2183     0.5645    -0.0161 C.3     
   5 C5             1.3508     1.8379    -0.0010 C.3     
   6 O6            -1.0069    -0.6808     0.0084 O.2     
   7 C7             3.0750     0.5128    -1.2827 C.3     
   8 C8             1.6042     2.6745    -1.2567 C.3     
   9 C9             0.7515     3.9437    -1.2046 C.3     
  10 C10            1.1251     4.7587     0.0352 C.3     
  11 C11            1.0049     4.7803    -2.4603 C.3     
  12 O12           -0.6307     3.5866    -1.1411 O.3     
  13 C13            3.0861    -3.5909     0.0552 C.ar    
  14 N14            2.7955    -2.2986     0.0637 N.ar    
  15 C15            1.5352    -1.8868    -0.0223 C.ar    
  16 C16            0.5179    -2.8355    -0.1221 C.ar    
  17 C17            0.8633    -4.1754    -0.1275 C.ar    
  18 N18            2.1418    -4.5152    -0.0384 N.ar    
  19 O19            6.6162    -5.2691     1.3119 O.3     
  20 C20            6.0057    -5.8408     0.1518 C.3     
  21 C21            4.5257    -5.4506     0.1157 C.3     
  22 N22            4.4099    -3.9853     0.1406 N.3     
  23 C23            5.0477    -3.4326     1.3444 C.3     
  24 C24            6.5224    -3.8431     1.3682 C.3     
  25 Cl25          -0.3634    -5.3977    -0.2490 Cl      
  26 H26            2.8457     0.5180     0.8740 H       
  27 H27            1.5485     2.4243     0.8964 H       
  28 H28            2.4317     0.5848    -2.1596 H       
  29 H29            3.7791     1.3448    -1.2792 H       
  30 H30            3.6246    -0.4281    -1.3115 H       
  31 H31            2.6586     2.9469    -1.3051 H       
  32 H32            1.3380     2.0939    -2.1399 H       
  33 H33            2.1794     5.0311    -0.0132 H       
  34 H34            0.5176     5.6629     0.0723 H       
  35 H35            0.9445     4.1627     0.9298 H       
  36 H36            0.7387     4.1997    -3.3436 H       
  37 H37            0.3974     5.6845    -2.4232 H       
  38 H38            2.0592     5.0527    -2.5087 H       
  39 H39           -0.9379     3.0673    -1.8968 H       
  40 H40           -0.5160    -2.5313    -0.1931 H       
  41 H41            6.5028    -5.4663    -0.7430 H       
  42 H42            6.0950    -6.9265     0.1912 H       
  43 H43            4.0698    -5.8364    -0.7961 H       
  44 H44            4.0173    -5.8707     0.9836 H       
  45 H45            4.9727    -2.3453     1.3295 H       
  46 H46            4.5476    -3.8204     2.2319 H       
  47 H47            6.9854    -3.4839     2.2872 H       
  48 H48            7.0345    -3.4105     0.5087 H       
@<TRIPOS>BOND
   1    1    2 1
   2    1    5 1
   3    2    3 am
   4    2    6 2
   5    3    4 1
   6    3   15 1
   7    4    5 1
   8    4    7 1
   9    4   26 1
  10    5    8 1
  11    5   27 1
  12    7   28 1
  13    7   29 1
  14    7   30 1
  15    8    9 1
  16    8   31 1
  17    8   32 1
  18    9   10 1
  19    9   11 1
  20    9   12 1
  21   10   33 1
  22   10   34 1
  23   10   35 1
  24   11   36 1
  25   11   37 1
  26   11   38 1
  27   12   39 1
  28   13   14 ar
  29   13   18 ar
  30   13   22 1
  31   14   15 ar
  32   15   16 ar
  33   16   17 ar
  34   16   40 1
  35   17   18 ar
  36   17   25 1
  37   19   20 1
  38   19   24 1
  39   20   21 1
  40   20   41 1
  41   20   42 1
  42   21   22 1
  43   21   43 1
  44   21   44 1
  45   22   23 1
  46   23   24 1
  47   23   45 1
  48   23   46 1
  49   24   47 1
  50   24   48 1

#	End of record

