#	Name: ASD02408433
#	Creating user name:	WinNT
#	Creation time:	15. 06. 2019 20:21

#	Modifying user name:	WinNT
#	Modification time:	15. 06. 2019 20:21

#	Program:	/corina/corina34_cracker 3.40 0067  02.08.2006

@<TRIPOS>MOLECULE
ASD02408433
  44   47    0    0    0
SMALL
NO_CHARGES


@<TRIPOS>ATOM
   1 N1            -0.0163     1.3529     0.0095 N.am    
   2 C2             0.0021    -0.0041     0.0020 C.2     
   3 N3             1.1020    -0.6986    -0.0118 N.2     
   4 C4             2.3095    -0.1134    -0.0202 C.2     
   5 C5             2.3912     1.2884    -0.0139 C.2     
   6 C6             1.1433     2.0512     0.0022 C.2     
   7 N7             3.5890    -0.5766    -0.0346 N.pl3   
   8 N8             4.4546     0.5245    -0.0372 N.2     
   9 C9             3.7571     1.6275    -0.0251 C.2     
  10 C10           -1.3127    -0.7405     0.0107 C.3     
  11 C11           -1.0528    -2.2483     0.0001 C.3     
  12 C12            3.9745    -1.9244    -0.0446 C.ar    
  13 C13            5.1058    -2.3181    -0.7470 C.ar    
  14 C14            5.4852    -3.6455    -0.7560 C.ar    
  15 C15            4.7361    -4.5862    -0.0640 C.ar    
  16 C16            3.6056    -4.1935     0.6380 C.ar    
  17 C17            3.2284    -2.8654     0.6525 C.ar    
  18 O18            1.1473     3.2695     0.0079 O.2     
  19 C19           -2.3811    -3.0131     0.1347 C.3     
  20 C20           -2.5263    -3.8718    -1.1386 C.3     
  21 C21           -1.0731    -4.0502    -1.6441 C.3     
  22 C22           -0.4370    -2.6689    -1.3504 C.3     
  23 O23            5.1097    -5.8933    -0.0740 O.3     
  24 C24            4.2923    -6.8073     0.6598 C.3     
  25 H25           -0.8640     1.8243     0.0161 H       
  26 H26            4.1595     2.6297    -0.0245 H       
  27 H27           -1.8722    -0.4746     0.9075 H       
  28 H28           -1.8893    -0.4650    -0.8724 H       
  29 H29           -0.3827    -2.5171     0.8167 H       
  30 H30            5.6886    -1.5861    -1.2863 H       
  31 H31            6.3651    -3.9518    -1.3022 H       
  32 H32            3.0227    -4.9263     1.1762 H       
  33 H33            2.3484    -2.5599     1.1990 H       
  34 H34           -2.3554    -3.6538     1.0162 H       
  35 H35           -3.2110    -2.3102     0.2076 H       
  36 H36           -2.9680    -4.8389    -0.8983 H       
  37 H37           -3.1280    -3.3510    -1.8834 H       
  38 H38           -0.5639    -4.8364    -1.0865 H       
  39 H39           -1.0593    -4.2624    -2.7131 H       
  40 H40           -0.7013    -1.9538    -2.1294 H       
  41 H41            0.6460    -2.7580    -1.2646 H       
  42 H42            4.2742    -6.5159     1.7100 H       
  43 H43            3.2784    -6.7894     0.2603 H       
  44 H44            4.7010    -7.8137     0.5690 H       
@<TRIPOS>BOND
   1    1    2 1
   2    1    6 am
   3    1   25 1
   4    2    3 2
   5    2   10 1
   6    3    4 1
   7    4    5 2
   8    4    7 1
   9    5    6 1
  10    5    9 1
  11    6   18 2
  12    7    8 1
  13    7   12 1
  14    8    9 2
  15    9   26 1
  16   10   11 1
  17   10   27 1
  18   10   28 1
  19   11   19 1
  20   11   22 1
  21   11   29 1
  22   12   13 ar
  23   12   17 ar
  24   13   14 ar
  25   13   30 1
  26   14   15 ar
  27   14   31 1
  28   15   16 ar
  29   15   23 1
  30   16   17 ar
  31   16   32 1
  32   17   33 1
  33   19   20 1
  34   19   34 1
  35   19   35 1
  36   20   21 1
  37   20   36 1
  38   20   37 1
  39   21   22 1
  40   21   38 1
  41   21   39 1
  42   22   40 1
  43   22   41 1
  44   23   24 1
  45   24   42 1
  46   24   43 1
  47   24   44 1

#	End of record

