#	Name: ASD01940255
#	Creating user name:	WinNT
#	Creation time:	15. 06. 2019 20:12

#	Modifying user name:	WinNT
#	Modification time:	15. 06. 2019 20:12

#	Program:	/corina/corina34_cracker 3.40 0067  02.08.2006

@<TRIPOS>MOLECULE
ASD01940255
  36   38    0    0    0
SMALL
NO_CHARGES


@<TRIPOS>ATOM
   1 C1            -0.4845     1.4458    -0.0352 C.2     
   2 C2            -0.6006     0.1178    -0.0710 C.2     
   3 C3             0.5976    -0.5705    -0.1670 C.2     
   4 C4             1.6867     0.2011    -0.2091 C.2     
   5 S5             1.2141     1.8931    -0.1254 S.3     
   6 S6            -1.8284     2.5798     0.0775 S.o2    
   7 O7            -1.3603     3.8110    -0.4555 O.2     
   8 O8            -2.9705     1.8996    -0.4247 O.2     
   9 N9            -2.1124     2.8449     1.6873 N.am    
  10 C10           -1.1065     3.3914     2.4954 C.ar    
  11 C11           -0.9699     2.9739     3.8188 C.ar    
  12 C12            0.0287     3.5183     4.6147 C.ar    
  13 C13            0.8859     4.4741     4.0922 C.ar    
  14 C14            0.7480     4.8871     2.7785 C.ar    
  15 C15           -0.2415     4.3440     1.9791 C.ar    
  16 N16           -1.8387     2.0076     4.3441 N.pl3   
  17 C17           -1.9712     1.8654     5.7289 C.ar    
  18 C18           -2.6766     2.8139     6.4631 C.ar    
  19 C19           -2.8056     2.6692     7.8317 C.ar    
  20 C20           -2.2337     1.5830     8.4706 C.ar    
  21 C21           -1.5318     0.6395     7.7429 C.ar    
  22 C22           -1.4042     0.7745     6.3737 C.ar    
  23 I23           -2.4310     1.3680    10.5452 I       
  24 F24           -3.2341     3.8747     5.8393 F       
  25 F25            1.8577     5.0038     4.8670 F       
  26 F26            0.1646     3.1173     5.8977 F       
  27 Cl27           3.3191    -0.3775    -0.3278 Cl      
  28 Br28           0.6845    -2.4584    -0.2327 Br      
  29 H29           -1.5564    -0.3832    -0.0279 H       
  30 H30           -2.9750     2.6220     2.0707 H       
  31 H31            1.4174     5.6325     2.3752 H       
  32 H32           -0.3431     4.6652     0.9530 H       
  33 H33           -2.3481     1.4376     3.7471 H       
  34 H34           -3.3528     3.4046     8.4028 H       
  35 H35           -1.0863    -0.2065     8.2451 H       
  36 H36           -0.8596     0.0345     5.8061 H       
@<TRIPOS>BOND
   1    1    2 2
   2    1    5 1
   3    1    6 1
   4    2    3 1
   5    2   29 1
   6    3    4 2
   7    3   28 1
   8    4    5 1
   9    4   27 1
  10    6    7 2
  11    6    8 2
  12    6    9 am
  13    9   10 1
  14    9   30 1
  15   10   11 ar
  16   10   15 ar
  17   11   12 ar
  18   11   16 1
  19   12   13 ar
  20   12   26 1
  21   13   14 ar
  22   13   25 1
  23   14   15 ar
  24   14   31 1
  25   15   32 1
  26   16   17 1
  27   16   33 1
  28   17   18 ar
  29   17   22 ar
  30   18   19 ar
  31   18   24 1
  32   19   20 ar
  33   19   34 1
  34   20   21 ar
  35   20   23 1
  36   21   22 ar
  37   21   35 1
  38   22   36 1

#	End of record

