#	Name: ASD08150910
#	Creating user name:	WinNT
#	Creation time:	15. 06. 2019 21:16

#	Modifying user name:	WinNT
#	Modification time:	15. 06. 2019 21:16

#	Program:	/corina/corina34_cracker 3.40 0067  02.08.2006

@<TRIPOS>MOLECULE
ASD08150910
  42   46    0    0    0
SMALL
NO_CHARGES


@<TRIPOS>ATOM
   1 N1            -0.0156     1.2972     0.0092 N.2     
   2 C2             0.0021    -0.0041     0.0020 C.2     
   3 N3             1.2894    -0.4523    -0.0127 N.pl3   
   4 C4             2.1082     0.6485    -0.0146 C.ar    
   5 N5             3.4232     0.8399    -0.0265 N.ar    
   6 C6             3.9240     2.0574    -0.0251 C.ar    
   7 N7             3.1634     3.1367    -0.0116 N.ar    
   8 C8             1.8376     3.0443     0.0009 C.ar    
   9 C9             1.2556     1.7655    -0.0004 C.ar    
  10 N10            1.0487     4.1813     0.0154 N.pl3   
  11 C11            1.6735     5.5064     0.0171 C.3     
  12 N12           -1.6530     8.2395     2.3575 N.ar    
  13 N13           -2.5638     9.1459     2.3561 N.ar    
  14 C14           -2.9441     9.7920     1.2629 C.ar    
  15 C15           -2.3696     9.5163     0.0533 C.ar    
  16 C16           -1.3675     8.5284     0.0196 C.ar    
  17 C17           -0.7139     8.1697    -1.1696 C.ar    
  18 C18            0.2512     7.2055    -1.1498 C.ar    
  19 C19            0.6027     6.5666     0.0340 C.ar    
  20 C20           -0.0181     6.8911     1.2273 C.ar    
  21 C21           -1.0227     7.8873     1.2365 C.ar    
  22 C22            0.3653     6.2030     2.4819 C.ar    
  23 C23            0.9632     6.9193     3.5183 C.ar    
  24 C24            1.3182     6.2717     4.6863 C.ar    
  25 C25            1.0810     4.9136     4.8272 C.ar    
  26 C26            0.4883     4.2000     3.8017 C.ar    
  27 C27            0.1245     4.8378     2.6331 C.ar    
  28 F28            1.8976     6.9633     5.6919 F       
  29 Cl29          -1.1334     8.9503    -2.6624 Cl      
  30 H30           -0.8740    -0.6357     0.0073 H       
  31 H31            1.5742    -1.3795    -0.0201 H       
  32 H32            4.9972     2.1779    -0.0350 H       
  33 H33            0.0821     4.1008     0.0245 H       
  34 H34            2.3020     5.6106     0.9016 H       
  35 H35            2.2844     5.6212    -0.8783 H       
  36 H36           -3.7164    10.5442     1.3284 H       
  37 H37           -2.6733    10.0370    -0.8429 H       
  38 H38            0.7499     6.9340    -2.0684 H       
  39 H39            1.1488     7.9776     3.4082 H       
  40 H40            1.3603     4.4106     5.7412 H       
  41 H41            0.3062     3.1417     3.9170 H       
  42 H42           -0.3424     4.2795     1.8351 H       
@<TRIPOS>BOND
   1    1    2 2
   2    1    9 1
   3    2    3 1
   4    2   30 1
   5    3    4 1
   6    3   31 1
   7    4    5 ar
   8    4    9 ar
   9    5    6 ar
  10    6    7 ar
  11    6   32 1
  12    7    8 ar
  13    8    9 ar
  14    8   10 1
  15   10   11 1
  16   10   33 1
  17   11   19 1
  18   11   34 1
  19   11   35 1
  20   12   13 ar
  21   12   21 ar
  22   13   14 ar
  23   14   15 ar
  24   14   36 1
  25   15   16 ar
  26   15   37 1
  27   16   17 ar
  28   16   21 ar
  29   17   18 ar
  30   17   29 1
  31   18   19 ar
  32   18   38 1
  33   19   20 ar
  34   20   21 ar
  35   20   22 1
  36   22   23 ar
  37   22   27 ar
  38   23   24 ar
  39   23   39 1
  40   24   25 ar
  41   24   28 1
  42   25   26 ar
  43   25   40 1
  44   26   27 ar
  45   26   41 1
  46   27   42 1

#	End of record

