#	Name: ASD01812630
#	Creating user name:	WinNT
#	Creation time:	15. 06. 2019 19:28

#	Modifying user name:	WinNT
#	Modification time:	15. 06. 2019 19:28

#	Program:	/corina/corina34_cracker 3.40 0067  02.08.2006

@<TRIPOS>MOLECULE
ASD01812630
  60   64    0    0    0
SMALL
NO_CHARGES


@<TRIPOS>ATOM
   1 O1            -0.0163     1.3523     0.0095 O.3     
   2 C2             0.0097     0.0100     0.2037 C.ar    
   3 C3             1.2216    -0.6601     0.2774 C.ar    
   4 C4             1.2502    -2.0266     0.4746 C.ar    
   5 C5             0.0680    -2.7399     0.6006 C.ar    
   6 C6            -1.1405    -2.0895     0.5297 C.ar    
   7 C7            -1.1882    -0.7059     0.3368 C.ar    
   8 C8            -2.5721    -2.5555     0.6243 C.3     
   9 N9            -3.4040    -1.3569     0.4672 N.am    
  10 C10           -2.6004    -0.2907     0.3104 C.2     
  11 C11           -4.8685    -1.3255     0.4906 C.3     
  12 O12           -2.9854     0.8519     0.1538 O.2     
  13 C13            1.2359     1.9974    -0.2310 C.3     
  14 C14            1.0015     3.2892    -1.0167 C.3     
  15 C15            0.1294     4.1849    -0.2395 C.1     
  16 C16            1.9045     2.3273     1.1050 C.3     
  17 C17            3.2453     3.0180     0.8476 C.3     
  18 C18            3.0109     4.3098     0.0619 C.3     
  19 C19            2.3423     3.9799    -1.2742 C.3     
  20 C20           -5.3438    -1.1118     1.9046 C.ar    
  21 C21           -5.5421     0.1735     2.3904 C.ar    
  22 C22           -5.9796     0.3268     3.6938 C.ar    
  23 C23           -6.2049    -0.8084     4.4704 C.ar    
  24 N24           -6.0028    -2.0195     3.9683 N.ar    
  25 C25           -5.5918    -2.1934     2.7279 C.ar    
  26 C26           -6.6740    -0.6611     5.8698 C.2     
  27 C27           -6.9438    -1.7089     6.7726 C.2     
  28 N28           -7.3333    -1.1804     7.9021 N.2     
  29 N29           -7.3280     0.2131     7.7671 N.pl3   
  30 C30           -6.9175     0.5145     6.5199 C.2     
  31 C31           -7.7004     1.1776     8.8050 C.3     
  32 C32           -6.8075    -3.1819     6.4852 C.3     
  33 N33           -0.5436     4.8761     0.3603 N.1     
  34 F34            1.0757     3.1786     1.8437 F       
  35 H35            2.1466    -0.1112     0.1798 H       
  36 H36            2.1976    -2.5420     0.5306 H       
  37 H37            0.0970    -3.8085     0.7543 H       
  38 H38           -2.7875    -3.2682    -0.1717 H       
  39 H39           -2.7538    -3.0129     1.5969 H       
  40 H40           -5.2245    -0.5105    -0.1396 H       
  41 H41           -5.2582    -2.2718     0.1154 H       
  42 H42            1.8817     1.3342    -0.8065 H       
  43 H43            0.5252     3.0542    -1.9685 H       
  44 H44            2.0715     1.4071     1.6648 H       
  45 H45            3.7216     3.2530     1.7994 H       
  46 H46            3.8910     2.3548     0.2721 H       
  47 H47            2.3651     4.9730     0.6374 H       
  48 H48            3.9661     4.8018    -0.1216 H       
  49 H49            2.9880     3.3167    -1.8497 H       
  50 H50            2.1753     4.9002    -1.8339 H       
  51 H51           -5.3587     1.0346     1.7648 H       
  52 H52           -6.1438     1.3123     4.1040 H       
  53 H53           -5.4424    -3.1946     2.3516 H       
  54 H54           -6.8033     1.5065     6.1083 H       
  55 H55           -6.8177     1.4448     9.3861 H       
  56 H56           -8.1128     2.0723     8.3385 H       
  57 H57           -8.4476     0.7334     9.4626 H       
  58 H58           -5.7994    -3.5098     6.7388 H       
  59 H59           -7.5312    -3.7370     7.0820 H       
  60 H60           -6.9934    -3.3642     5.4267 H       
@<TRIPOS>BOND
   1    1    2 1
   2    1   13 1
   3    2    3 ar
   4    2    7 ar
   5    3    4 ar
   6    3   35 1
   7    4    5 ar
   8    4   36 1
   9    5    6 ar
  10    5   37 1
  11    6    8 1
  12    6    7 ar
  13    7   10 1
  14    8    9 1
  15    8   38 1
  16    8   39 1
  17    9   10 am
  18    9   11 1
  19   10   12 2
  20   11   20 1
  21   11   40 1
  22   11   41 1
  23   13   16 1
  24   13   14 1
  25   13   42 1
  26   14   15 1
  27   14   19 1
  28   14   43 1
  29   15   33 3
  30   16   17 1
  31   16   34 1
  32   16   44 1
  33   17   18 1
  34   17   45 1
  35   17   46 1
  36   18   19 1
  37   18   47 1
  38   18   48 1
  39   19   49 1
  40   19   50 1
  41   20   21 ar
  42   20   25 ar
  43   21   22 ar
  44   21   51 1
  45   22   23 ar
  46   22   52 1
  47   23   24 ar
  48   23   26 1
  49   24   25 ar
  50   25   53 1
  51   26   27 1
  52   26   30 2
  53   27   28 2
  54   27   32 1
  55   28   29 1
  56   29   30 1
  57   29   31 1
  58   30   54 1
  59   31   55 1
  60   31   56 1
  61   31   57 1
  62   32   58 1
  63   32   59 1
  64   32   60 1

#	End of record

