#	Name: ASD00120001
#	Creating user name:	WinNT
#	Creation time:	15. 06. 2019 18:31

#	Modifying user name:	WinNT
#	Modification time:	15. 06. 2019 18:31

#	Program:	/corina/corina34_cracker 3.40 0067  02.08.2006

@<TRIPOS>MOLECULE
ASD00120001
  17   18    0    0    0
SMALL
NO_CHARGES


@<TRIPOS>ATOM
   1 C1            -0.0168     1.3880     0.0097 C.ar    
   2 C2             0.0021    -0.0041     0.0020 C.ar    
   3 C3            -1.1735    -0.7216     0.0094 C.ar    
   4 C4            -2.3942    -0.0558     0.0251 C.ar    
   5 C5            -2.4167     1.3505     0.0333 C.ar    
   6 C6            -1.2186     2.0677     0.0306 C.ar    
   7 N7            -3.7055    -0.4827     0.0350 N.pl3   
   8 C8            -4.5454     0.5970     0.0490 C.2     
   9 C9            -3.8306     1.7333     0.0488 C.2     
  10 O10            1.1531     2.0812     0.0022 O.3     
  11 H11            0.9474    -0.5262    -0.0102 H       
  12 H12           -1.1472    -1.8013     0.0026 H       
  13 H13           -1.2319     3.1476     0.0369 H       
  14 H14           -3.9898    -1.4101     0.0323 H       
  15 H15           -5.6241     0.5432     0.0586 H       
  16 H16           -4.2236     2.7392     0.0586 H       
  17 H17            1.4831     2.2864    -0.8833 H       
@<TRIPOS>BOND
   1    1    2 ar
   2    1   10 1
   3    1    6 ar
   4    2    3 ar
   5    2   11 1
   6    3    4 ar
   7    3   12 1
   8    4    5 ar
   9    4    7 1
  10    5    6 ar
  11    5    9 1
  12    6   13 1
  13    7    8 1
  14    7   14 1
  15    8    9 2
  16    8   15 1
  17    9   16 1
  18   10   17 1

#	End of record

