#	Name: ASD01209368
#	Creating user name:	WinNT
#	Creation time:	15. 06. 2019 19:11

#	Modifying user name:	WinNT
#	Modification time:	15. 06. 2019 19:11

#	Program:	/corina/corina34_cracker 3.40 0067  02.08.2006

@<TRIPOS>MOLECULE
ASD01209368
  37   38    0    0    0
SMALL
NO_CHARGES


@<TRIPOS>ATOM
   1 C1             0.9646     1.5652    -1.4043 C.2     
   2 C2             0.7565     0.0801    -1.2550 C.3     
   3 O3             1.7483     2.1406    -0.6870 O.2     
   4 O4             0.2833     2.2478    -2.3380 O.3     
   5 S5             1.8177    -0.5483     0.0753 S.3     
   6 N6             2.6112    -3.0820    -0.4111 N.am    
   7 C7             1.4533    -2.3253     0.0829 C.3     
   8 C8             1.2210    -2.8037     1.4972 C.2     
   9 C9             2.1473    -3.7216     1.7545 C.2     
  10 C10            3.0096    -3.8994     0.5817 C.2     
  11 O11            3.9465    -4.6720     0.5155 O.2     
  12 C12            2.2897    -4.4680     3.0559 C.3     
  13 C13            0.1435    -2.3296     2.4381 C.3     
  14 C14            3.2168    -2.9721    -1.7405 C.3     
  15 C15            4.2934    -1.9179    -1.7166 C.ar    
  16 C16            5.5947    -2.2666    -1.4063 C.ar    
  17 C17            6.5829    -1.3008    -1.3845 C.ar    
  18 C18            6.2693     0.0165    -1.6735 C.ar    
  19 C19            4.9656     0.3645    -1.9840 C.ar    
  20 C20            3.9801    -0.6039    -2.0104 C.ar    
  21 F21            7.2345     0.9616    -1.6520 F       
  22 H22           -0.2873    -0.1178    -1.0113 H       
  23 H23            1.0122    -0.4184    -2.1899 H       
  24 H24            0.4503     3.1985    -2.3960 H       
  25 H25            0.5784    -2.5319    -0.5336 H       
  26 H26            1.6953    -5.3809     3.0181 H       
  27 H27            3.3373    -4.7229     3.2158 H       
  28 H28            1.9394    -3.8401     3.8751 H       
  29 H29           -0.7571    -2.9251     2.2888 H       
  30 H30            0.4855    -2.4397     3.4672 H       
  31 H31           -0.0772    -1.2809     2.2389 H       
  32 H32            3.6531    -3.9307    -2.0214 H       
  33 H33            2.4524    -2.6943    -2.4662 H       
  34 H34            5.8391    -3.2941    -1.1806 H       
  35 H35            7.5994    -1.5733    -1.1418 H       
  36 H36            4.7198     1.3917    -2.2096 H       
  37 H37            2.9639    -0.3334    -2.2566 H       
@<TRIPOS>BOND
   1    1    2 1
   2    1    3 2
   3    1    4 1
   4    2    5 1
   5    2   22 1
   6    2   23 1
   7    4   24 1
   8    5    7 1
   9    6    7 1
  10    6   10 am
  11    6   14 1
  12    7    8 1
  13    7   25 1
  14    8    9 2
  15    8   13 1
  16    9   10 1
  17    9   12 1
  18   10   11 2
  19   12   26 1
  20   12   27 1
  21   12   28 1
  22   13   29 1
  23   13   30 1
  24   13   31 1
  25   14   15 1
  26   14   32 1
  27   14   33 1
  28   15   16 ar
  29   15   20 ar
  30   16   17 ar
  31   16   34 1
  32   17   18 ar
  33   17   35 1
  34   18   19 ar
  35   18   21 1
  36   19   20 ar
  37   19   36 1
  38   20   37 1

#	End of record

