#	Name: ASD03740001
#	Creating user name:	WinNT
#	Creation time:	15. 06. 2019 20:46

#	Modifying user name:	WinNT
#	Modification time:	15. 06. 2019 20:46

#	Program:	/corina/corina34_cracker 3.40 0067  02.08.2006

@<TRIPOS>MOLECULE
ASD03740001
  32   33    0    0    0
SMALL
NO_CHARGES


@<TRIPOS>ATOM
   1 C1             1.5011     3.7971    -0.0305 C.ar    
   2 C2             2.7552     4.3811    -0.0009 C.ar    
   3 C3             3.8868     3.5923     0.0035 C.ar    
   4 C4             3.7646     2.2015    -0.0215 C.ar    
   5 C5             2.4959     1.6189    -0.0509 C.ar    
   6 C6             1.3727     2.4196    -0.0555 C.ar    
   7 C7             4.9719     1.3504    -0.0175 C.2     
   8 O8             4.8504     0.0089    -0.0417 O.3     
   9 O9             6.0743     1.8602     0.0077 O.2     
  10 C10            5.9949    -0.7115    -0.1617 C.2     
  11 N11            6.1018    -2.0572    -0.0939 N.pl3   
  12 N12            7.4509    -2.3916    -0.2672 N.2     
  13 C13            8.1310    -1.2862    -0.4333 C.2     
  14 C14            7.2401    -0.2103    -0.3778 C.2     
  15 C15            9.6188    -1.1897    -0.6528 C.3     
  16 C16            5.0012    -2.9995     0.1231 C.3     
  17 C17            4.3329    -3.3199    -1.2154 C.3     
  18 C18            3.2271    -4.2667    -0.9974 C.1     
  19 N19            2.3736    -4.9974    -0.8292 N.1     
  20 H20            0.6184     4.4193    -0.0297 H       
  21 H21            2.8483     5.4569     0.0185 H       
  22 H22            4.8651     4.0493     0.0259 H       
  23 H23            2.3943     0.5439    -0.0704 H       
  24 H24            0.3909     1.9704    -0.0779 H       
  25 H25            7.4965     0.8337    -0.4807 H       
  26 H26            9.8318    -1.2290    -1.7211 H       
  27 H27            9.9862    -0.2487    -0.2434 H       
  28 H28           10.1145    -2.0217    -0.1526 H       
  29 H29            5.3903    -3.9173     0.5639 H       
  30 H30            4.2694    -2.5544     0.7972 H       
  31 H31            3.9438    -2.4021    -1.6562 H       
  32 H32            5.0647    -3.7650    -1.8896 H       
@<TRIPOS>BOND
   1    1    2 ar
   2    1    6 ar
   3    1   20 1
   4    2    3 ar
   5    2   21 1
   6    3    4 ar
   7    3   22 1
   8    4    5 ar
   9    4    7 1
  10    5    6 ar
  11    5   23 1
  12    6   24 1
  13    7    8 1
  14    7    9 2
  15    8   10 1
  16   10   11 1
  17   10   14 2
  18   11   12 1
  19   11   16 1
  20   12   13 2
  21   13   14 1
  22   13   15 1
  23   14   25 1
  24   15   26 1
  25   15   27 1
  26   15   28 1
  27   16   17 1
  28   16   29 1
  29   16   30 1
  30   17   18 1
  31   17   31 1
  32   17   32 1
  33   18   19 3

#	End of record

