#	Name: ASD01901403
#	Creating user name:	WinNT
#	Creation time:	15. 06. 2019 19:53

#	Modifying user name:	WinNT
#	Modification time:	15. 06. 2019 19:53

#	Program:	/corina/corina34_cracker 3.40 0067  02.08.2006

@<TRIPOS>MOLECULE
ASD01901403
  42   45    0    0    0
SMALL
NO_CHARGES


@<TRIPOS>ATOM
   1 C1            -0.0169     1.3964     0.0097 C.ar    
   2 C2             1.1782     2.1011     0.0021 C.ar    
   3 C3             2.3830     1.4205    -0.0135 C.ar    
   4 C4             2.4025     0.0346    -0.0216 C.ar    
   5 C5             1.2200    -0.6778    -0.0137 C.ar    
   6 C6             0.0021    -0.0041     0.0020 C.ar    
   7 C7            -1.2707    -0.7663     0.0106 C.2     
   8 N8            -3.1794    -1.5365    -1.1465 N.2     
   9 C9            -2.0556    -0.8625    -1.1593 C.2     
  10 C10           -1.6975    -1.3902     1.1496 C.2     
  11 N11           -2.8724    -2.0824     1.1228 N.pl3   
  12 C12           -3.6086    -2.1473    -0.0320 C.2     
  13 C13           -3.5495    -2.7956     2.0749 C.2     
  14 C14           -4.6686    -3.2742     1.4908 C.2     
  15 N15           -4.6904    -2.8723     0.2166 N.2     
  16 C16           -5.7190    -4.1195     2.1640 C.3     
  17 O17           -5.3505    -4.3414     3.5267 O.3     
  18 C18           -6.1973    -5.0913     4.2808 C.ar    
  19 C19           -7.3555    -5.6074     3.7185 C.ar    
  20 C20           -5.9010    -5.3460     5.6117 C.ar    
  21 C21           -6.7621    -6.1086     6.3767 C.ar    
  22 C22           -7.9203    -6.6191     5.8154 C.ar    
  23 C23           -8.2149    -6.3697     4.4858 C.ar    
  24 S24           -1.5526     2.2599     0.0363 S.3     
  25 F25            3.5449     2.1097    -0.0214 F       
  26 F26           -8.7611    -7.3655     6.5645 F       
  27 C27           -1.0420     4.0006     0.0382 C.3     
  28 H28            1.1682     3.1810     0.0080 H       
  29 H29            3.3465    -0.4900    -0.0345 H       
  30 H30            1.2399    -1.7576    -0.0201 H       
  31 H31           -1.7288    -0.3785    -2.0678 H       
  32 H32           -1.1134    -1.3360     2.0564 H       
  33 H33           -3.2458    -2.9469     3.1002 H       
  34 H34           -6.6789    -3.6044     2.1264 H       
  35 H35           -5.8000    -5.0768     1.6490 H       
  36 H36           -7.5855    -5.4130     2.6813 H       
  37 H37           -4.9973    -4.9485     6.0496 H       
  38 H38           -6.5317    -6.3071     7.4130 H       
  39 H39           -9.1168    -6.7716     4.0482 H       
  40 H40           -0.4340     4.1999     0.9207 H       
  41 H41           -0.4595     4.2093    -0.8591 H       
  42 H42           -1.9257     4.6384     0.0543 H       
@<TRIPOS>BOND
   1    1    6 ar
   2    1    2 ar
   3    1   24 1
   4    2    3 ar
   5    2   28 1
   6    3    4 ar
   7    3   25 1
   8    4    5 ar
   9    4   29 1
  10    5    6 ar
  11    5   30 1
  12    6    7 1
  13    7   10 2
  14    7    9 1
  15    8    9 2
  16    8   12 1
  17    9   31 1
  18   10   11 1
  19   10   32 1
  20   11   13 1
  21   11   12 1
  22   12   15 2
  23   13   14 2
  24   13   33 1
  25   14   15 1
  26   14   16 1
  27   16   17 1
  28   16   34 1
  29   16   35 1
  30   17   18 1
  31   18   20 ar
  32   18   19 ar
  33   19   23 ar
  34   19   36 1
  35   20   21 ar
  36   20   37 1
  37   21   22 ar
  38   21   38 1
  39   22   23 ar
  40   22   26 1
  41   23   39 1
  42   24   27 1
  43   27   40 1
  44   27   41 1
  45   27   42 1

#	End of record

