#	Name: ASD04990002
#	Creating user name:	WinNT
#	Creation time:	15. 06. 2019 20:56

#	Modifying user name:	WinNT
#	Modification time:	15. 06. 2019 20:56

#	Program:	/corina/corina34_cracker 3.40 0067  02.08.2006

@<TRIPOS>MOLECULE
ASD04990002
 106  107    0    0    0
SMALL
NO_CHARGES


@<TRIPOS>ATOM
   1 O1            -1.5015    -0.9981    -2.1824 O.2     
   2 C2            -1.4047     0.1711    -1.8749 C.2     
   3 N3            -0.2021     0.7787    -1.9060 N.am    
   4 C4             1.0713     0.1444    -2.2929 C.3     
   5 C5             2.1645     0.9928    -1.5967 C.3     
   6 C6             1.5737     2.4224    -1.7179 C.3     
   7 C7             0.0562     2.1855    -1.5657 C.3     
   8 C8            -0.7005     3.0934    -2.5006 C.2     
   9 O9            -1.1232     2.6638    -3.5532 O.2     
  10 N10           -0.9076     4.3827    -2.1672 N.am    
  11 C11           -1.6433     5.2653    -3.0760 C.3     
  12 C12           -1.2358     6.6947    -2.8274 C.2     
  13 O13           -0.8134     7.0244    -1.7394 O.2     
  14 N14           -1.3408     7.6068    -3.8141 N.am    
  15 C15           -1.0401     9.0151    -3.5450 C.3     
  16 C16           -1.7796     9.8837    -4.5297 C.2     
  17 C17           -2.5760    10.8426    -4.0957 C.2     
  18 N18           -1.6232     9.6752    -5.8941 N.pl3   
  19 C19           -2.2540    10.5871    -6.8516 C.3     
  20 C20           -2.7145     9.8094    -8.0574 C.2     
  21 O21           -2.4293     8.6357    -8.1673 O.2     
  22 N22           -3.4434    10.4181    -9.0139 N.am    
  23 C23           -3.8285     9.6824   -10.2208 C.3     
  24 C24           -4.0641    10.6546   -11.3479 C.2     
  25 O25           -3.9241    11.8448   -11.1614 O.2     
  26 N26           -4.4305    10.2014   -12.5632 N.am    
  27 C27           -4.6595    11.1465   -13.6589 C.3     
  28 P28           -6.4512    11.3196   -13.9476 P.3     
  29 O29           -7.0849    11.9355   -12.7604 O.2     
  30 O30           -6.6995    12.2548   -15.2344 O.3     
  31 O31           -7.0957     9.8673   -14.2072 O.3     
  32 C32           -3.9860    10.6262   -14.9304 C.3     
  33 C33           -5.1119     8.8947    -9.9501 C.3     
  34 C34           -4.8391     7.8231    -8.8927 C.3     
  35 C35           -6.1032     7.0472    -8.6260 C.2     
  36 O36           -7.1220     7.3240    -9.2230 O.2     
  37 N37           -6.1016     6.0456    -7.7242 N.am    
  38 C38           -1.2428    11.6500    -7.2859 C.3     
  39 C39           -0.0660    10.9754    -7.9935 C.3     
  40 C40           -1.9173    12.6345    -8.2434 C.3     
  41 C41           -0.7341    12.4030    -6.0550 C.3     
  42 C42            0.4649     9.2513    -3.6864 C.3     
  43 C43            1.1973     8.4766    -2.6212 C.ar    
  44 C44            1.6109     7.1812    -2.8713 C.ar    
  45 C45            2.2824     6.4690    -1.8965 C.ar    
  46 C46            2.5416     7.0545    -0.6658 C.ar    
  47 C47            2.1255     8.3544    -0.4174 C.ar    
  48 C48            1.4593     9.0644    -1.3975 C.ar    
  49 O49            3.2016     6.3558     0.2949 O.3     
  50 C50           -3.1456     5.1131    -2.8299 C.3     
  51 C51           -3.4702     5.5179    -1.3906 C.3     
  52 C52           -3.9150     6.0133    -3.7987 C.3     
  53 H53           -2.2829     0.7265    -1.5806 H       
  54 H54            1.1059    -0.8852    -1.9366 H       
  55 H55            1.1978     0.1767    -3.3750 H       
  56 H56            2.2770     0.7038    -0.5517 H       
  57 H57            3.1144     0.9165    -2.1259 H       
  58 H58            1.9482     3.0634    -0.9198 H       
  59 H59            1.7974     2.8506    -2.6949 H       
  60 H60           -0.2471     2.3743    -0.5360 H       
  61 H61           -0.5696     4.7263    -1.3254 H       
  62 H62           -1.4150     4.9966    -4.1074 H       
  63 H63           -1.6155     7.3307    -4.7025 H       
  64 H64           -1.3537     9.2663    -2.5317 H       
  65 H65           -3.1748    11.4056    -4.7962 H       
  66 H66           -2.6287    11.0643    -3.0400 H       
  67 H67           -1.0962     8.9258    -6.2129 H       
  68 H68           -3.1107    11.0708    -6.3823 H       
  69 H69           -3.7129    11.3433    -8.9031 H       
  70 H70           -3.0304     8.9931   -10.4964 H       
  71 H71           -4.5425     9.2495   -12.7124 H       
  72 H72           -4.2385    12.1169   -13.3958 H       
  73 H73           -7.6329    12.3908   -15.4475 H       
  74 H74           -6.7269     9.4043   -14.9719 H       
  75 H75           -4.4070     9.6559   -15.1935 H       
  76 H76           -4.1564    11.3294   -15.7456 H       
  77 H77           -2.9147    10.5227   -14.7578 H       
  78 H78           -5.8852     9.5728    -9.5891 H       
  79 H79           -5.4473     8.4188   -10.8716 H       
  80 H80           -4.0659     7.1449    -9.2537 H       
  81 H81           -4.5037     8.2990    -7.9712 H       
  82 H82           -5.2868     5.8242    -7.2468 H       
  83 H83           -6.9153     5.5462    -7.5526 H       
  84 H84           -0.4284    10.4389    -8.8704 H       
  85 H85            0.6544    11.7326    -8.3029 H       
  86 H86            0.4145    10.2740    -7.3114 H       
  87 H87           -2.7409    13.1325    -7.7318 H       
  88 H88           -1.1907    13.3779    -8.5714 H       
  89 H89           -2.3007    12.0945    -9.1091 H       
  90 H90           -0.3003    11.6946    -5.3493 H       
  91 H91            0.0246    13.1245    -6.3584 H       
  92 H92           -1.5641    12.9265    -5.5805 H       
  93 H93            0.7943     8.9168    -4.6701 H       
  94 H94            0.6780    10.3143    -3.5738 H       
  95 H95            1.4086     6.7257    -3.8294 H       
  96 H96            2.6050     5.4570    -2.0922 H       
  97 H97            2.3261     8.8125     0.5399 H       
  98 H98            1.1352    10.0764    -1.2046 H       
  99 H99            4.1627     6.4585     0.2657 H       
 100 H100          -3.4366     4.0749    -2.9897 H       
 101 H101          -3.1792     6.5561    -1.2307 H       
 102 H102          -4.5406     5.4095    -1.2152 H       
 103 H103          -2.9222     4.8766    -0.7003 H       
 104 H104          -3.6107     5.7903    -4.8213 H       
 105 H105          -4.9845     5.8334    -3.6904 H       
 106 H106          -3.6977     7.0577    -3.5746 H       
@<TRIPOS>BOND
   1    1    2 2
   2    2    3 am
   3    2   53 1
   4    3    4 1
   5    3    7 1
   6    4    5 1
   7    4   54 1
   8    4   55 1
   9    5    6 1
  10    5   56 1
  11    5   57 1
  12    6    7 1
  13    6   58 1
  14    6   59 1
  15    7    8 1
  16    7   60 1
  17    8    9 2
  18    8   10 am
  19   10   11 1
  20   10   61 1
  21   11   12 1
  22   11   50 1
  23   11   62 1
  24   12   13 2
  25   12   14 am
  26   14   15 1
  27   14   63 1
  28   15   16 1
  29   15   42 1
  30   15   64 1
  31   16   17 2
  32   16   18 1
  33   17   65 1
  34   17   66 1
  35   18   19 1
  36   18   67 1
  37   19   20 1
  38   19   38 1
  39   19   68 1
  40   20   21 2
  41   20   22 am
  42   22   23 1
  43   22   69 1
  44   23   24 1
  45   23   33 1
  46   23   70 1
  47   24   25 2
  48   24   26 am
  49   26   27 1
  50   26   71 1
  51   27   28 1
  52   27   32 1
  53   27   72 1
  54   28   29 2
  55   28   30 1
  56   28   31 1
  57   30   73 1
  58   31   74 1
  59   32   75 1
  60   32   76 1
  61   32   77 1
  62   33   34 1
  63   33   78 1
  64   33   79 1
  65   34   35 1
  66   34   80 1
  67   34   81 1
  68   35   36 2
  69   35   37 am
  70   37   82 1
  71   37   83 1
  72   38   39 1
  73   38   40 1
  74   38   41 1
  75   39   84 1
  76   39   85 1
  77   39   86 1
  78   40   87 1
  79   40   88 1
  80   40   89 1
  81   41   90 1
  82   41   91 1
  83   41   92 1
  84   42   43 1
  85   42   93 1
  86   42   94 1
  87   43   44 ar
  88   43   48 ar
  89   44   45 ar
  90   44   95 1
  91   45   46 ar
  92   45   96 1
  93   46   47 ar
  94   46   49 1
  95   47   48 ar
  96   47   97 1
  97   48   98 1
  98   49   99 1
  99   50   51 1
 100   50   52 1
 101   50  100 1
 102   51  101 1
 103   51  102 1
 104   51  103 1
 105   52  104 1
 106   52  105 1
 107   52  106 1

#	End of record

