#	Name: ASD01478095
#	Creating user name:	WinNT
#	Creation time:	15. 06. 2019 19:21

#	Modifying user name:	WinNT
#	Modification time:	15. 06. 2019 19:21

#	Program:	/corina/corina34_cracker 3.40 0067  02.08.2006

@<TRIPOS>MOLECULE
ASD01478095
  87   89    0    0    0
SMALL
NO_CHARGES


@<TRIPOS>ATOM
   1 C1             1.4580     1.5347     0.0943 C.2     
   2 N2             1.2226     0.2120     0.2013 N.am    
   3 O3             2.5693     1.9326    -0.1943 O.2     
   4 O4             0.4606     2.4149     0.3017 O.3     
   5 C5             2.3064    -0.7461    -0.0303 C.3     
   6 C6             1.7158    -2.0894    -0.4633 C.3     
   7 C7             2.8489    -3.0518    -0.8251 C.3     
   8 N8             2.2835    -4.2915    -1.3633 N.am    
   9 S9             2.4731    -5.7147    -0.5382 S.o2    
  10 O10            2.3431    -6.7551    -1.4974 O.2     
  11 O11            3.6222    -5.5530     0.2820 O.2     
  12 C12            1.0999    -5.8710     0.5547 C.ar    
  13 C13           -0.0512    -6.5085     0.1298 C.ar    
  14 C14           -1.1292    -6.6323     0.9847 C.ar    
  15 C15           -1.0562    -6.1164     2.2705 C.ar    
  16 C16            0.0998    -5.4773     2.6944 C.ar    
  17 C17            1.1772    -5.3610     1.8375 C.ar    
  18 O18           -2.1156    -6.2366     3.1132 O.3     
  19 C19           -1.9696    -5.6818     4.4220 C.3     
  20 C20            1.5503    -4.2722    -2.6315 C.3     
  21 C21            2.5149    -3.9460    -3.7734 C.3     
  22 C22            3.5654    -5.0527    -3.8854 C.3     
  23 C23            1.7360    -3.8474    -5.0866 C.3     
  24 O24            0.9475    -2.6397     0.6086 O.3     
  25 C25            3.1064    -0.9330     1.2604 C.3     
  26 C26            3.7887     0.3616     1.6204 C.ar    
  27 C27            3.1444     1.2818     2.4260 C.ar    
  28 C28            3.7703     2.4693     2.7562 C.ar    
  29 C29            5.0406     2.7364     2.2811 C.ar    
  30 C30            5.6853     1.8159     1.4762 C.ar    
  31 C31            5.0612     0.6265     1.1496 C.ar    
  32 C32            0.7865     3.8237     0.1696 C.3     
  33 C33           -0.4497     4.5910    -0.3036 C.3     
  34 O34           -0.1641     5.2340    -1.5474 O.3     
  35 C35           -0.5016     6.6223    -1.5749 C.3     
  36 C36            0.6847     7.4250    -2.1128 C.3     
  37 O37            1.1100     8.3662    -1.1252 O.3     
  38 C38            2.5032     8.2944    -0.8158 C.3     
  39 O39            2.6697     8.1069     0.5911 O.3     
  40 C40            3.5119     7.0049     0.9349 C.3     
  41 C41            2.8071     6.1285     1.9723 C.3     
  42 O42            2.5909     4.8254     1.4271 O.3     
  43 C43            1.2393     4.3716     1.5244 C.3     
  44 H44            0.3355    -0.1057     0.4316 H       
  45 H45            2.9637    -0.3687    -0.8137 H       
  46 H46            1.0739    -1.9412    -1.3317 H       
  47 H47            3.4921    -2.5905    -1.5745 H       
  48 H48            3.4336    -3.2764     0.0669 H       
  49 H49           -0.1076    -6.9096    -0.8714 H       
  50 H50           -2.0282    -7.1300     0.6523 H       
  51 H51            0.1591    -5.0748     3.6948 H       
  52 H52            2.0791    -4.8678     2.1685 H       
  53 H53           -1.7775    -4.6117     4.3437 H       
  54 H54           -2.8850    -5.8460     4.9905 H       
  55 H55           -1.1348    -6.1645     4.9302 H       
  56 H56            1.0988    -5.2490    -2.8051 H       
  57 H57            0.7690    -3.5134    -2.5879 H       
  58 H58            3.0087    -2.9954    -3.5716 H       
  59 H59            4.2527    -4.8203    -4.6989 H       
  60 H60            4.1203    -5.1230    -2.9499 H       
  61 H61            3.0716    -6.0033    -4.0873 H       
  62 H62            0.9876    -3.0589    -5.0068 H       
  63 H63            2.4232    -3.6150    -5.9001 H       
  64 H64            1.2422    -4.7979    -5.2884 H       
  65 H65            1.4558    -2.7983     1.4158 H       
  66 H66            2.4330    -1.2250     2.0662 H       
  67 H67            3.8562    -1.7104     1.1138 H       
  68 H68            2.1519     1.0731     2.7972 H       
  69 H69            3.2666     3.1885     3.3850 H       
  70 H70            5.5293     3.6645     2.5384 H       
  71 H71            6.6777     2.0247     1.1047 H       
  72 H72            5.5663    -0.0944     0.5237 H       
  73 H73            1.5894     3.9442    -0.5578 H       
  74 H74           -1.2797     3.8969    -0.4355 H       
  75 H75           -0.7182     5.3413     0.4401 H       
  76 H76           -1.3658     6.7733    -2.2219 H       
  77 H77           -0.7401     6.9583    -0.5658 H       
  78 H78            1.5059     6.7473    -2.3464 H       
  79 H79            0.3842     7.9565    -3.0157 H       
  80 H80            2.9513     7.4563    -1.3495 H       
  81 H81            2.9910     9.2208    -1.1191 H       
  82 H82            3.7207     6.4149     0.0425 H       
  83 H83            4.4477     7.3786     1.3506 H       
  84 H84            3.4284     6.0506     2.8645 H       
  85 H85            1.8486     6.5761     2.2350 H       
  86 H86            0.5967     5.2033     1.8131 H       
  87 H87            1.1737     3.5841     2.2752 H       
@<TRIPOS>BOND
   1    1    2 am
   2    1    3 2
   3    1    4 1
   4    2    5 1
   5    2   44 1
   6    4   32 1
   7    5    6 1
   8    5   25 1
   9    5   45 1
  10    6    7 1
  11    6   24 1
  12    6   46 1
  13    7    8 1
  14    7   47 1
  15    7   48 1
  16    8    9 am
  17    8   20 1
  18    9   10 2
  19    9   11 2
  20    9   12 1
  21   12   13 ar
  22   12   17 ar
  23   13   14 ar
  24   13   49 1
  25   14   15 ar
  26   14   50 1
  27   15   16 ar
  28   15   18 1
  29   16   17 ar
  30   16   51 1
  31   17   52 1
  32   18   19 1
  33   19   53 1
  34   19   54 1
  35   19   55 1
  36   20   21 1
  37   20   56 1
  38   20   57 1
  39   21   22 1
  40   21   23 1
  41   21   58 1
  42   22   59 1
  43   22   60 1
  44   22   61 1
  45   23   62 1
  46   23   63 1
  47   23   64 1
  48   24   65 1
  49   25   26 1
  50   25   66 1
  51   25   67 1
  52   26   27 ar
  53   26   31 ar
  54   27   28 ar
  55   27   68 1
  56   28   29 ar
  57   28   69 1
  58   29   30 ar
  59   29   70 1
  60   30   31 ar
  61   30   71 1
  62   31   72 1
  63   32   33 1
  64   32   43 1
  65   32   73 1
  66   33   34 1
  67   33   74 1
  68   33   75 1
  69   34   35 1
  70   35   36 1
  71   35   76 1
  72   35   77 1
  73   36   37 1
  74   36   78 1
  75   36   79 1
  76   37   38 1
  77   38   39 1
  78   38   80 1
  79   38   81 1
  80   39   40 1
  81   40   41 1
  82   40   82 1
  83   40   83 1
  84   41   42 1
  85   41   84 1
  86   41   85 1
  87   42   43 1
  88   43   86 1
  89   43   87 1

#	End of record

