#	Name: ASD01028098
#	Creating user name:	WinNT
#	Creation time:	15. 06. 2019 18:56

#	Modifying user name:	WinNT
#	Modification time:	15. 06. 2019 18:56

#	Program:	/corina/corina34_cracker 3.40 0067  02.08.2006

@<TRIPOS>MOLECULE
ASD01028098
  90   95    0    0    0
SMALL
NO_CHARGES


@<TRIPOS>ATOM
   1 N1            -0.7826     0.8880     1.4072 N.pl3   
   2 C2            -0.5066    -0.1771     0.5383 C.ar    
   3 C3            -1.5475    -0.9162    -0.0059 C.ar    
   4 C4            -2.9741    -0.5725     0.3375 C.3     
   5 C5             0.8112    -0.4896     0.2171 C.ar    
   6 C6             1.0808    -1.5459    -0.6444 C.ar    
   7 C7             0.0331    -2.2859    -1.1816 C.ar    
   8 C8            -1.2779    -1.9667    -0.8628 C.ar    
   9 O9             1.9945     0.0722     0.6044 O.3     
  10 C10            3.0042    -0.9062     0.2939 C.3     
  11 O11            2.4340    -1.6491    -0.7999 O.3     
  12 O12            0.2945    -3.3203    -2.0256 O.3     
  13 C13           -0.7575    -3.9318    -2.6303 C.ar    
  14 C14           -1.1681    -5.1927    -2.2220 C.ar    
  15 N15           -2.1882    -5.7897    -2.8058 N.ar    
  16 C16           -2.8549    -5.2208    -3.7910 C.ar    
  17 C17           -2.5051    -3.9654    -4.2529 C.ar    
  18 C18           -1.4423    -3.3000    -3.6641 C.ar    
  19 C19           -4.0134    -5.9489    -4.4223 C.3     
  20 C20           -4.3907    -1.2523    -1.5249 C.2     
  21 O21           -5.0706    -0.9779    -2.6542 O.3     
  22 O22           -4.3874    -2.3818    -1.0769 O.2     
  23 C23           -5.7765    -2.0801    -3.2828 C.3     
  24 C24           -6.4740    -1.5870    -4.5243 C.ar    
  25 C25           -5.8199    -1.6151    -5.7418 C.ar    
  26 C26           -6.4596    -1.1627    -6.8807 C.ar    
  27 C27           -7.7536    -0.6827    -6.8021 C.ar    
  28 C28           -8.4080    -0.6555    -5.5848 C.ar    
  29 C29           -7.7698    -1.1119    -4.4467 C.ar    
  30 C30           -4.9012     4.8500     5.4110 C.3     
  31 C31           -3.7576     4.7370     4.4361 C.2     
  32 O32           -2.6041     4.1664     4.8179 O.3     
  33 C33           -0.0156     2.0336     1.3595 C.ar    
  34 N34            1.0002     2.1386     0.5117 N.ar    
  35 C35           -0.2944     3.1305     2.2090 C.ar    
  36 C36            0.5304     4.2786     2.1110 C.ar    
  37 N37            1.5352     4.2765     1.2214 N.ar    
  38 C38            1.7434     3.2317     0.4554 C.ar    
  39 C39           -1.3501     3.1059     3.1282 C.ar    
  40 C40           -1.5781     4.1912     3.9258 C.ar    
  41 C41           -0.7661     5.3307     3.8345 C.ar    
  42 C42            0.2786     5.3799     2.9385 C.ar    
  43 O43           -1.0126     6.3975     4.6383 O.3     
  44 C44           -0.1505     7.5285     4.4980 C.3     
  45 O45           -3.8789     5.1600     3.3108 O.2     
  46 N46           -3.7138    -0.2740    -0.8913 N.am    
  47 C47           -3.7178     1.0878    -1.4315 C.3     
  48 C48           -2.5783     1.2393    -2.4411 C.3     
  49 C49           -2.4915     2.6971    -2.8973 C.3     
  50 C50           -1.3520     2.8486    -3.9070 C.3     
  51 C51           -1.2653     4.3064    -4.3632 C.3     
  52 Cl52           0.0776     4.4850    -5.5530 Cl      
  53 H53           -1.5154     0.8210     2.0392 H       
  54 H54           -3.4392    -1.4174     0.8454 H       
  55 H55           -2.9904     0.2988     0.9921 H       
  56 H56           -2.0899    -2.5429    -1.2812 H       
  57 H57            3.9286    -0.4182    -0.0151 H       
  58 H58            3.1814    -1.5586     1.1490 H       
  59 H59           -0.6463    -5.6903    -1.4180 H       
  60 H60           -3.0563    -3.5074    -5.0608 H       
  61 H61           -1.1473    -2.3183    -4.0043 H       
  62 H62           -4.9327    -5.6962    -3.8941 H       
  63 H63           -4.1020    -5.6534    -5.4678 H       
  64 H64           -3.8434    -7.0239    -4.3618 H       
  65 H65           -5.0652    -2.8611    -3.5515 H       
  66 H66           -6.5133    -2.4831    -2.5879 H       
  67 H67           -4.8090    -1.9901    -5.8032 H       
  68 H68           -5.9484    -1.1840    -7.8318 H       
  69 H69           -8.2532    -0.3286    -7.6918 H       
  70 H70           -9.4188    -0.2802    -5.5234 H       
  71 H71           -8.2810    -1.0906    -3.4956 H       
  72 H72           -4.8253     5.7930     5.9524 H       
  73 H73           -5.8459     4.8176     4.8682 H       
  74 H74           -4.8596     4.0210     6.1176 H       
  75 H75            2.5610     3.2638    -0.2496 H       
  76 H76           -1.9815     2.2331     3.2061 H       
  77 H77            0.8992     6.2615     2.8745 H       
  78 H78            0.8762     7.2315     4.7121 H       
  79 H79           -0.2136     7.9092     3.4786 H       
  80 H80           -0.4565     8.3075     5.1963 H       
  81 H81           -4.6698     1.2795    -1.9266 H       
  82 H82           -3.5806     1.8013    -0.6190 H       
  83 H83           -1.6376     0.9483    -1.9737 H       
  84 H84           -2.7689     0.5996    -3.3029 H       
  85 H85           -3.4322     2.9881    -3.3648 H       
  86 H86           -2.3009     3.3367    -2.0356 H       
  87 H87           -0.4113     2.5576    -3.4395 H       
  88 H88           -1.5426     2.2089    -4.7687 H       
  89 H89           -2.2060     4.5974    -4.8306 H       
  90 H90           -1.0746     4.9461    -3.5014 H       
@<TRIPOS>BOND
   1    1    2 1
   2    1   33 1
   3    1   53 1
   4    2    3 ar
   5    2    5 ar
   6    3    4 1
   7    3    8 ar
   8    4   46 1
   9    4   54 1
  10    4   55 1
  11    5    6 ar
  12    5    9 1
  13    6    7 ar
  14    6   11 1
  15    7    8 ar
  16    7   12 1
  17    8   56 1
  18    9   10 1
  19   10   11 1
  20   10   57 1
  21   10   58 1
  22   12   13 1
  23   13   14 ar
  24   13   18 ar
  25   14   15 ar
  26   14   59 1
  27   15   16 ar
  28   16   17 ar
  29   16   19 1
  30   17   18 ar
  31   17   60 1
  32   18   61 1
  33   19   62 1
  34   19   63 1
  35   19   64 1
  36   20   21 1
  37   20   22 2
  38   20   46 am
  39   21   23 1
  40   23   24 1
  41   23   65 1
  42   23   66 1
  43   24   25 ar
  44   24   29 ar
  45   25   26 ar
  46   25   67 1
  47   26   27 ar
  48   26   68 1
  49   27   28 ar
  50   27   69 1
  51   28   29 ar
  52   28   70 1
  53   29   71 1
  54   30   31 1
  55   30   72 1
  56   30   73 1
  57   30   74 1
  58   31   32 1
  59   31   45 2
  60   32   40 1
  61   33   34 ar
  62   33   35 ar
  63   34   38 ar
  64   35   36 ar
  65   35   39 ar
  66   36   37 ar
  67   36   42 ar
  68   37   38 ar
  69   38   75 1
  70   39   40 ar
  71   39   76 1
  72   40   41 ar
  73   41   42 ar
  74   41   43 1
  75   42   77 1
  76   43   44 1
  77   44   78 1
  78   44   79 1
  79   44   80 1
  80   46   47 1
  81   47   48 1
  82   47   81 1
  83   47   82 1
  84   48   49 1
  85   48   83 1
  86   48   84 1
  87   49   50 1
  88   49   85 1
  89   49   86 1
  90   50   51 1
  91   50   87 1
  92   50   88 1
  93   51   52 1
  94   51   89 1
  95   51   90 1

#	End of record

