#	Name: ASD01883031
#	Creating user name:	WinNT
#	Creation time:	15. 06. 2019 19:45

#	Modifying user name:	WinNT
#	Modification time:	15. 06. 2019 19:45

#	Program:	/corina/corina34_cracker 3.40 0067  02.08.2006

@<TRIPOS>MOLECULE
ASD01883031
  48   50    0    0    0
SMALL
NO_CHARGES


@<TRIPOS>ATOM
   1 N1            -1.9169     3.6240    -0.6909 N.am    
   2 C2            -1.5264     2.4020    -1.0978 C.2     
   3 C3            -2.4142     1.3034    -0.9880 C.2     
   4 C4            -3.6950     1.5220    -0.4503 C.2     
   5 C5            -4.0441     2.8245    -0.0424 C.2     
   6 C6            -3.1521     3.8332    -0.1671 C.2     
   7 O7            -0.4100     2.2406    -1.5607 O.2     
   8 C8            -2.0154    -0.0035    -1.4164 C.1     
   9 N9            -1.6990    -1.0403    -1.7563 N.1     
  10 C10           -0.9880     4.7506    -0.8101 C.3     
  11 C11           -1.1714     5.4208    -2.1732 C.3     
  12 C12           -6.0496    -1.2675    -1.3281 C.ar    
  13 C13           -4.6561     0.4076    -0.3163 C.ar    
  14 C14           -5.0702    -0.0112     0.9505 C.ar    
  15 C15           -5.9678    -1.0515     1.0711 C.ar    
  16 C16           -6.4599    -1.6827    -0.0674 C.ar    
  17 O17           -7.3435    -2.7068     0.0542 O.3     
  18 C18           -7.7153    -3.3649    -1.0731 C.ar    
  19 C19           -6.9896    -4.4619    -1.5320 C.ar    
  20 C20           -7.3999    -5.1039    -2.6821 C.ar    
  21 N21           -8.4641    -4.6907    -3.3443 N.ar    
  22 C22           -9.1770    -3.6560    -2.9415 C.ar    
  23 C23           -8.8352    -2.9642    -1.7975 C.ar    
  24 C24           -5.1530    -0.2294    -1.4560 C.ar    
  25 C25           -0.2013     6.5974    -2.2976 C.3     
  26 C26           -0.3848     7.2677    -3.6607 C.3     
  27 C27          -10.3831    -3.2282    -3.7374 C.3     
  28 F28           -6.3696    -1.4580     2.2952 F       
  29 H29           -5.0221     3.0166     0.3734 H       
  30 H30           -3.4309     4.8275     0.1489 H       
  31 H31           -1.1902     5.4734    -0.0196 H       
  32 H32            0.0360     4.3885    -0.7181 H       
  33 H33           -0.9692     4.6981    -2.9636 H       
  34 H34           -2.1954     5.7829    -2.2652 H       
  35 H35           -6.4302    -1.7627    -2.2091 H       
  36 H36           -4.6880     0.4786     1.8339 H       
  37 H37           -6.1177    -4.8050    -0.9950 H       
  38 H38           -6.8431    -5.9550    -3.0453 H       
  39 H39           -9.4230    -2.1181    -1.4733 H       
  40 H40           -4.8347     0.0920    -2.4367 H       
  41 H41           -0.4035     7.3202    -1.5072 H       
  42 H42            0.8226     6.2353    -2.2056 H       
  43 H43           -0.1826     6.5449    -4.4511 H       
  44 H44           -1.4087     7.6298    -3.7527 H       
  45 H45            0.3064     8.1059    -3.7493 H       
  46 H46          -11.2657    -3.7510    -3.3688 H       
  47 H47          -10.5265    -2.1530    -3.6303 H       
  48 H48          -10.2295    -3.4713    -4.7888 H       
@<TRIPOS>BOND
   1    1    2 am
   2    1   10 1
   3    1    6 1
   4    2    3 1
   5    2    7 2
   6    3    4 2
   7    3    8 1
   8    4    5 1
   9    4   13 1
  10    5    6 2
  11    5   29 1
  12    6   30 1
  13    8    9 3
  14   10   11 1
  15   10   31 1
  16   10   32 1
  17   11   25 1
  18   11   33 1
  19   11   34 1
  20   12   24 ar
  21   12   16 ar
  22   12   35 1
  23   13   14 ar
  24   13   24 ar
  25   14   15 ar
  26   14   36 1
  27   15   16 ar
  28   15   28 1
  29   16   17 1
  30   17   18 1
  31   18   19 ar
  32   18   23 ar
  33   19   20 ar
  34   19   37 1
  35   20   21 ar
  36   20   38 1
  37   21   22 ar
  38   22   23 ar
  39   22   27 1
  40   23   39 1
  41   24   40 1
  42   25   26 1
  43   25   41 1
  44   25   42 1
  45   26   43 1
  46   26   44 1
  47   26   45 1
  48   27   46 1
  49   27   47 1
  50   27   48 1

#	End of record

