#	Name: ASD05860005
#	Creating user name:	WinNT
#	Creation time:	15. 06. 2019 21:04

#	Modifying user name:	WinNT
#	Modification time:	15. 06. 2019 21:04

#	Program:	/corina/corina34_cracker 3.40 0067  02.08.2006

@<TRIPOS>MOLECULE
ASD05860005
  53   56    0    0    0
SMALL
NO_CHARGES


@<TRIPOS>ATOM
   1 C1            -0.1329     1.4270    -0.3521 C.2     
   2 C2             3.4329    -3.4931    -1.5180 C.ar    
   3 C3             1.7987    -1.7758    -1.0270 C.ar    
   4 C4            -0.0479    -0.0358    -0.7252 C.3     
   5 O5             0.8122     2.1623    -0.5090 O.2     
   6 O6            -0.9018    -0.3197    -1.8353 O.3     
   7 C7            -1.4363     1.9476     0.2178 C.3     
   8 C8            -1.8903     0.9659     1.2792 C.2     
   9 O9            -2.2708     1.3497     2.3591 O.2     
  10 C10           -1.8522    -0.5085     0.9462 C.3     
  11 N11           -2.8057    -0.7926    -0.1346 N.3     
  12 C12           -0.4107    -2.3612     0.1059 C.3     
  13 C13            1.3244    -4.0467    -0.4124 C.ar    
  14 C14            2.9639    -5.7974    -0.8920 C.ar    
  15 C15            4.1699    -6.1709    -1.4067 C.ar    
  16 C16            5.0255    -5.2378    -1.9805 C.ar    
  17 C17            4.6729    -3.9060    -2.0431 C.ar    
  18 O18            5.5135    -3.0010    -2.6055 O.3     
  19 C19            3.0378    -2.1432    -1.5590 C.ar    
  20 O20            3.8500    -1.2098    -2.1078 O.3     
  21 C21            1.3918    -0.3648    -1.0646 C.2     
  22 O22            2.1823     0.5082    -1.3571 O.2     
  23 C23           -1.2198     3.3054     0.8347 C.2     
  24 N24           -0.7718     4.3261     0.0771 N.am    
  25 O25           -1.4487     3.4796     2.0129 O.2     
  26 C26           -0.4466    -0.8840     0.4913 C.3     
  27 C27           -3.3140    -2.1676    -0.0403 C.3     
  28 C28           -3.9086     0.1777    -0.1322 C.3     
  29 C29            0.9453    -2.7420    -0.4568 C.ar    
  30 C30            2.5675    -4.4524    -0.9365 C.ar    
  31 C31            0.4056    -5.0696     0.2045 C.3     
  32 H32           -0.6672     0.1563    -2.6438 H       
  33 H33           -2.1857     2.0132    -0.5711 H       
  34 H34           -2.1193    -1.0886     1.8295 H       
  35 H35           -0.6193    -2.9662     0.9883 H       
  36 H36           -1.1752    -2.5530    -0.6470 H       
  37 H37            2.3132    -6.5374    -0.4500 H       
  38 H38            4.4655    -7.2089    -1.3676 H       
  39 H39            5.9755    -5.5589    -2.3816 H       
  40 H40            6.1358    -2.6019    -1.9821 H       
  41 H41            3.7084    -1.0730    -3.0545 H       
  42 H42           -0.5888     4.1867    -0.8652 H       
  43 H43           -0.6325     5.2000     0.4742 H       
  44 H44            0.2526    -0.7013     1.3073 H       
  45 H45           -4.0008    -2.2440     0.8026 H       
  46 H46           -3.8382    -2.4251    -0.9606 H       
  47 H47           -2.4801    -2.8539     0.1071 H       
  48 H48           -3.5231     1.1666    -0.3807 H       
  49 H49           -4.6540    -0.1177    -0.8706 H       
  50 H50           -4.3670     0.2043     0.8563 H       
  51 H51           -0.2543    -5.4747    -0.5626 H       
  52 H52            0.9979    -5.8759     0.6372 H       
  53 H53           -0.1913    -4.5979     0.9851 H       
@<TRIPOS>BOND
   1    1    4 1
   2    1    5 2
   3    1    7 1
   4    2   17 ar
   5    2   19 ar
   6    2   30 ar
   7    3   19 ar
   8    3   21 1
   9    3   29 ar
  10    4    6 1
  11    4   21 1
  12    4   26 1
  13    6   32 1
  14    7    8 1
  15    7   23 1
  16    7   33 1
  17    8    9 2
  18    8   10 1
  19   10   11 1
  20   10   26 1
  21   10   34 1
  22   11   27 1
  23   11   28 1
  24   12   26 1
  25   12   29 1
  26   12   35 1
  27   12   36 1
  28   13   29 ar
  29   13   30 ar
  30   13   31 1
  31   14   15 ar
  32   14   30 ar
  33   14   37 1
  34   15   16 ar
  35   15   38 1
  36   16   17 ar
  37   16   39 1
  38   17   18 1
  39   18   40 1
  40   19   20 1
  41   20   41 1
  42   21   22 2
  43   23   24 am
  44   23   25 2
  45   24   42 1
  46   24   43 1
  47   26   44 1
  48   27   45 1
  49   27   46 1
  50   27   47 1
  51   28   48 1
  52   28   49 1
  53   28   50 1
  54   31   51 1
  55   31   52 1
  56   31   53 1

#	End of record

