#	Name: ASD01918011
#	Creating user name:	WinNT
#	Creation time:	15. 06. 2019 20:10

#	Modifying user name:	WinNT
#	Modification time:	15. 06. 2019 20:10

#	Program:	/corina/corina34_cracker 3.40 0067  02.08.2006

@<TRIPOS>MOLECULE
ASD01918011
  37   40    0    0    0
SMALL
NO_CHARGES


@<TRIPOS>ATOM
   1 N1             4.8207    -0.4124    -2.1405 N.ar    
   2 C2             5.2876     0.2852    -3.1572 C.ar    
   3 C3             5.1756     1.6643    -3.1832 C.ar    
   4 C4             4.5626     2.3132    -2.1225 C.ar    
   5 C5             4.0812     1.5451    -1.0669 C.ar    
   6 C6             4.2314     0.1666    -1.1131 C.ar    
   7 O7             3.4733     2.1368    -0.0053 O.3     
   8 C8             3.4546     3.4960     0.0438 C.2     
   9 N9             2.2050     5.5106    -0.0226 N.pl3   
  10 C10            2.2729     4.1507    -0.0661 C.2     
  11 C11            4.6572     4.1966     0.2131 C.2     
  12 C12            4.6346     5.5844     0.2633 C.2     
  13 C13            3.3432     6.2622     0.1360 C.2     
  14 C14            5.8771     6.3539     0.4403 C.2     
  15 N15            5.8351     7.7002     0.4867 N.am    
  16 C16            6.9935     8.4242     0.7594 C.ar    
  17 O17            6.9415     5.7747     0.5449 O.2     
  18 C18            1.1810     6.4046    -0.1056 C.2     
  19 N19            1.6968     7.6022    -0.0092 N.2     
  20 N20            2.9730     7.5273     0.1396 N.2     
  21 Cl21           5.7959     2.5708    -4.5276 Cl      
  22 N22            8.1524     7.7919     0.8649 N.ar    
  23 C23            6.9228     9.8035     0.9126 C.ar    
  24 C24            8.0809    10.5125     1.1835 C.ar    
  25 C25            9.2745     9.8148     1.2923 C.ar    
  26 C26            9.2737     8.4406     1.1225 C.ar    
  27 F27           10.4336     7.7551     1.2221 F       
  28 H28            5.7641    -0.2263    -3.9803 H       
  29 H29            4.4614     3.3885    -2.1156 H       
  30 H30            3.8615    -0.4387    -0.2987 H       
  31 H31            1.3639     3.5811    -0.1915 H       
  32 H32            5.5915     3.6625     0.3038 H       
  33 H33            4.9982     8.1651     0.3300 H       
  34 H34            0.1351     6.1679    -0.2343 H       
  35 H35            5.9766    10.3161     0.8211 H       
  36 H36            8.0553    11.5851     1.3070 H       
  37 H37           10.1954    10.3382     1.5026 H       
@<TRIPOS>BOND
   1    1    2 ar
   2    1    6 ar
   3    2    3 ar
   4    2   28 1
   5    3    4 ar
   6    3   21 1
   7    4    5 ar
   8    4   29 1
   9    5    6 ar
  10    5    7 1
  11    6   30 1
  12    7    8 1
  13    8   11 1
  14    8   10 2
  15    9   10 1
  16    9   18 1
  17    9   13 1
  18   10   31 1
  19   11   12 2
  20   11   32 1
  21   12   13 1
  22   12   14 1
  23   13   20 2
  24   14   15 am
  25   14   17 2
  26   15   16 1
  27   15   33 1
  28   16   23 ar
  29   16   22 ar
  30   18   19 2
  31   18   34 1
  32   19   20 1
  33   22   26 ar
  34   23   24 ar
  35   23   35 1
  36   24   25 ar
  37   24   36 1
  38   25   26 ar
  39   25   37 1
  40   26   27 1

#	End of record

