#	Name: ASD01816507
#	Creating user name:	WinNT
#	Creation time:	15. 06. 2019 19:35

#	Modifying user name:	WinNT
#	Modification time:	15. 06. 2019 19:35

#	Program:	/corina/corina34_cracker 3.40 0067  02.08.2006

@<TRIPOS>MOLECULE
ASD01816507
  64   69    0    0    0
SMALL
NO_CHARGES


@<TRIPOS>ATOM
   1 C1            -0.0509     1.4807    -0.1019 C.ar    
   2 C2            -0.0520     0.0955    -0.1284 C.ar    
   3 C3             1.1344    -0.6085    -0.1392 C.ar    
   4 C4             2.3474     0.0708    -0.1235 C.ar    
   5 C5             2.3451     1.4754    -0.0968 C.ar    
   6 C6             1.1422     2.1738    -0.0861 C.ar    
   7 N7             3.5413    -0.6295    -0.1338 N.pl3   
   8 C8             4.7419    -0.0282    -0.1192 C.2     
   9 C9             4.8644     1.3388    -0.0929 C.2     
  10 C10            3.6433     2.1762    -0.0806 C.2     
  11 C11            5.9753     2.2853    -0.0723 C.2     
  12 N12            5.4203     3.5164    -0.0510 N.am    
  13 N13            4.0265     3.4204    -0.0565 N.2     
  14 C14            6.1396     4.7181    -0.0261 C.ar    
  15 O15            7.1660     2.0181    -0.0741 O.2     
  16 C16            3.4929    -2.0934    -0.1613 C.3     
  17 C17            3.4798    -2.5688    -1.5913 C.ar    
  18 C18            4.6714    -2.8261    -2.2439 C.ar    
  19 C19            4.6625    -3.2615    -3.5546 C.ar    
  20 C20            3.4556    -3.4412    -4.2168 C.ar    
  21 C21            2.2607    -3.1825    -3.5587 C.ar    
  22 C22            2.2759    -2.7523    -2.2463 C.ar    
  23 N23            3.4433    -3.8826    -5.5473 N.pl3   
  24 C24            2.3437    -4.0973    -6.3044 C.2     
  25 C25            2.7581    -4.5157    -7.5228 C.2     
  26 C26            4.1566    -4.5583    -7.5110 C.2     
  27 N27            4.5683    -4.1734    -6.3298 N.2     
  28 C28            7.0907     4.9799    -1.0013 C.ar    
  29 C29            7.7992     6.1664    -0.9746 C.ar    
  30 C30            7.5633     7.0952     0.0223 C.ar    
  31 C31            6.6178     6.8426     0.9986 C.ar    
  32 C32            5.8976     5.6577     0.9763 C.ar    
  33 N33            4.9394     5.3996     1.9642 N.am    
  34 C34            4.3408     6.4225     2.6059 C.2     
  35 O35            4.6836     7.5639     2.3800 O.2     
  36 C36            3.2456     6.1482     3.6040 C.3     
  37 C37            3.7923     5.2727     4.7334 C.3     
  38 C38            2.7404     7.4712     4.1833 C.3     
  39 H39           -0.9868     2.0198    -0.0982 H       
  40 H40           -0.9907    -0.4385    -0.1403 H       
  41 H41            1.1209    -1.6882    -0.1594 H       
  42 H42            1.1420     3.2536    -0.0659 H       
  43 H43            5.6345    -0.6361    -0.1281 H       
  44 H44            4.3692    -2.4956     0.3472 H       
  45 H45            2.5902    -2.4367     0.3441 H       
  46 H46            5.6100    -2.6862    -1.7282 H       
  47 H47            5.5936    -3.4616    -4.0640 H       
  48 H48            1.3203    -3.3210    -4.0714 H       
  49 H49            1.3467    -2.5509    -1.7339 H       
  50 H50            1.3188    -3.9603    -5.9926 H       
  51 H51            2.1217    -4.7715    -8.3570 H       
  52 H52            4.7878    -4.8536    -8.3361 H       
  53 H53            7.2777     4.2566    -1.7812 H       
  54 H54            8.5396     6.3685    -1.7344 H       
  55 H55            8.1198     8.0206     0.0384 H       
  56 H56            6.4367     7.5700     1.7760 H       
  57 H57            4.7064     4.4847     2.1866 H       
  58 H58            2.4238     5.6311     3.1087 H       
  59 H59            4.1522     4.3302     4.3207 H       
  60 H60            4.6141     5.7898     5.2286 H       
  61 H61            3.0002     5.0743     5.4553 H       
  62 H62            2.3509     8.0949     3.3787 H       
  63 H63            1.9482     7.2728     4.9052 H       
  64 H64            3.5622     7.9883     4.6786 H       
@<TRIPOS>BOND
   1    1    2 ar
   2    1    6 ar
   3    1   39 1
   4    2    3 ar
   5    2   40 1
   6    3    4 ar
   7    3   41 1
   8    4    5 ar
   9    4    7 1
  10    5    6 ar
  11    5   10 1
  12    6   42 1
  13    7    8 1
  14    7   16 1
  15    8    9 2
  16    8   43 1
  17    9   10 1
  18    9   11 1
  19   10   13 2
  20   11   12 am
  21   11   15 2
  22   12   13 1
  23   12   14 1
  24   14   28 ar
  25   14   32 ar
  26   16   17 1
  27   16   44 1
  28   16   45 1
  29   17   18 ar
  30   17   22 ar
  31   18   19 ar
  32   18   46 1
  33   19   20 ar
  34   19   47 1
  35   20   21 ar
  36   20   23 1
  37   21   22 ar
  38   21   48 1
  39   22   49 1
  40   23   24 1
  41   23   27 1
  42   24   25 2
  43   24   50 1
  44   25   26 1
  45   25   51 1
  46   26   27 2
  47   26   52 1
  48   28   29 ar
  49   28   53 1
  50   29   30 ar
  51   29   54 1
  52   30   31 ar
  53   30   55 1
  54   31   32 ar
  55   31   56 1
  56   32   33 1
  57   33   34 am
  58   33   57 1
  59   34   35 2
  60   34   36 1
  61   36   37 1
  62   36   38 1
  63   36   58 1
  64   37   59 1
  65   37   60 1
  66   37   61 1
  67   38   62 1
  68   38   63 1
  69   38   64 1

#	End of record

