#	Name: ASD07930842
#	Creating user name:	WinNT
#	Creation time:	15. 06. 2019 21:13

#	Modifying user name:	WinNT
#	Modification time:	15. 06. 2019 21:13

#	Program:	/corina/corina34_cracker 3.40 0067  02.08.2006

@<TRIPOS>MOLECULE
ASD07930842
  43   46    0    0    0
SMALL
NO_CHARGES


@<TRIPOS>ATOM
   1 S1            -0.0218     1.7568     0.0117 S.3     
   2 C2             0.0021    -0.0041     0.0020 C.2     
   3 N3             1.0039    -0.6777    -0.4129 N.2     
   4 C4             2.2686    -0.2447    -0.9571 C.3     
   5 C5             2.4022     1.2744    -1.1331 C.3     
   6 C6             1.7645     2.0590    -0.0037 C.3     
   7 O7             1.9952     0.3585    -3.2710 O.3     
   8 C8             2.3528    -0.7412    -2.4245 C.3     
   9 C9             1.6712     1.5094    -2.4705 C.3     
  10 N10           -1.1039    -0.6814     0.4608 N.pl3   
  11 C11            2.1831     2.7861    -3.1406 C.3     
  12 C12            4.2045    -2.1052     1.7076 C.ar    
  13 C13            3.1491    -1.5907     0.9568 C.ar    
  14 C14            3.4090    -0.8012    -0.1442 C.ar    
  15 C15            4.7172    -0.5196    -0.5041 C.ar    
  16 C16            5.7693    -1.0289     0.2393 C.ar    
  17 C17            5.5184    -1.8195     1.3422 C.ar    
  18 C18            3.9298    -2.9497     2.8963 C.ar    
  19 C19            4.9846    -3.4644     3.6473 C.ar    
  20 C20            4.7232    -4.2491     4.7523 C.ar    
  21 C21            3.4171    -4.5252     5.1143 C.ar    
  22 C22            2.3661    -4.0169     4.3724 C.ar    
  23 C23            2.6159    -3.2264     3.2689 C.ar    
  24 F24            4.9673     0.2536    -1.5834 F       
  25 H25            3.4538     1.5459    -1.2250 H       
  26 H26            1.9515     3.1229    -0.1499 H       
  27 H27            2.1946     1.7422     0.9464 H       
  28 H28            3.3693    -1.0652    -2.6480 H       
  29 H29            1.6576    -1.5668    -2.5766 H       
  30 H30            0.5948     1.5692    -2.3096 H       
  31 H31           -1.8759    -0.1890     0.7809 H       
  32 H32           -1.1118    -1.6513     0.4642 H       
  33 H33            3.2520     2.6925    -3.3320 H       
  34 H34            1.6571     2.9376    -4.0833 H       
  35 H35            2.0046     3.6377    -2.4841 H       
  36 H36            2.1292    -1.8100     1.2364 H       
  37 H37            6.7874    -0.8072    -0.0448 H       
  38 H38            6.3392    -2.2158     1.9215 H       
  39 H39            6.0048    -3.2500     3.3651 H       
  40 H40            5.5400    -4.6485     5.3351 H       
  41 H41            3.2171    -5.1402     5.9792 H       
  42 H42            1.3482    -4.2359     4.6593 H       
  43 H43            1.7945    -2.8266     2.6927 H       
@<TRIPOS>BOND
   1    1    2 1
   2    1    6 1
   3    2    3 2
   4    2   10 1
   5    3    4 1
   6    4    8 1
   7    4   14 1
   8    4    5 1
   9    5    6 1
  10    5    9 1
  11    5   25 1
  12    6   26 1
  13    6   27 1
  14    7    8 1
  15    7    9 1
  16    8   28 1
  17    8   29 1
  18    9   11 1
  19    9   30 1
  20   10   31 1
  21   10   32 1
  22   11   33 1
  23   11   34 1
  24   11   35 1
  25   12   13 ar
  26   12   17 ar
  27   12   18 1
  28   13   14 ar
  29   13   36 1
  30   14   15 ar
  31   15   16 ar
  32   15   24 1
  33   16   17 ar
  34   16   37 1
  35   17   38 1
  36   18   19 ar
  37   18   23 ar
  38   19   20 ar
  39   19   39 1
  40   20   21 ar
  41   20   40 1
  42   21   22 ar
  43   21   41 1
  44   22   23 ar
  45   22   42 1
  46   23   43 1

#	End of record

