#	Name: ASD00311226
#	Creating user name:	WinNT
#	Creation time:	15. 06. 2019 18:34

#	Modifying user name:	WinNT
#	Modification time:	15. 06. 2019 18:34

#	Program:	/corina/corina34_cracker 3.40 0067  02.08.2006

@<TRIPOS>MOLECULE
ASD00311226
  37   40    0    0    0
SMALL
NO_CHARGES


@<TRIPOS>ATOM
   1 C1            -0.0167     1.3818     0.0096 C.2     
   2 C2             0.0021    -0.0041     0.0020 C.2     
   3 C3             1.2619    -0.6774    -0.0139 C.2     
   4 C4             2.4328     0.0672    -0.0214 C.2     
   5 C5             2.3569     1.4759    -0.0131 C.2     
   6 N6             1.1651     2.0911     0.0022 N.am    
   7 C7            -1.3345    -0.5788     0.0125 C.2     
   8 C8            -2.3336     0.3470     0.0276 C.2     
   9 S9            -1.6753     1.9710     0.0359 S.3     
  10 O10            3.3812     2.1382    -0.0192 O.2     
  11 O11            1.3129    -2.0295    -0.0213 O.3     
  12 C12            3.7497    -0.6106    -0.0375 C.ar    
  13 C13            4.5950    -0.4722    -1.1382 C.ar    
  14 C14            5.8206    -1.1061    -1.1473 C.ar    
  15 C15            6.2112    -1.8781    -0.0677 C.ar    
  16 C16            5.3770    -2.0195     1.0268 C.ar    
  17 C17            4.1518    -1.3851     1.0505 C.ar    
  18 C18           -1.5857    -2.0367     0.0065 C.ar    
  19 C19           -2.1959    -2.6473     1.1031 C.ar    
  20 C20           -2.4273    -4.0072     1.0912 C.ar    
  21 C21           -2.0558    -4.7656    -0.0048 C.ar    
  22 C22           -1.4504    -4.1665    -1.0952 C.ar    
  23 C23           -1.2186    -2.8065    -1.0983 C.ar    
  24 C24           -3.7313     0.0356     0.0394 C.1     
  25 N25           -4.8401    -0.2114     0.0488 N.1     
  26 H26            1.1340     3.0606     0.0073 H       
  27 H27            2.2105    -2.3892    -0.0320 H       
  28 H28            4.2908     0.1296    -1.9818 H       
  29 H29            6.4760    -0.9997    -1.9990 H       
  30 H30            7.1713    -2.3726    -0.0796 H       
  31 H31            5.6872    -2.6240     1.8663 H       
  32 H32            3.5034    -1.4924     1.9075 H       
  33 H33           -2.4860    -2.0564     1.9593 H       
  34 H34           -2.8991    -4.4810     1.9393 H       
  35 H35           -2.2388    -5.8300    -0.0091 H       
  36 H36           -1.1625    -4.7641    -1.9475 H       
  37 H37           -0.7503    -2.3393    -1.9520 H       
@<TRIPOS>BOND
   1    1    2 2
   2    1    6 1
   3    1    9 1
   4    2    3 1
   5    2    7 1
   6    3    4 2
   7    3   11 1
   8    4    5 1
   9    4   12 1
  10    5    6 am
  11    5   10 2
  12    6   26 1
  13    7    8 2
  14    7   18 1
  15    8    9 1
  16    8   24 1
  17   11   27 1
  18   12   13 ar
  19   12   17 ar
  20   13   14 ar
  21   13   28 1
  22   14   15 ar
  23   14   29 1
  24   15   16 ar
  25   15   30 1
  26   16   17 ar
  27   16   31 1
  28   17   32 1
  29   18   19 ar
  30   18   23 ar
  31   19   20 ar
  32   19   33 1
  33   20   21 ar
  34   20   34 1
  35   21   22 ar
  36   21   35 1
  37   22   23 ar
  38   22   36 1
  39   23   37 1
  40   24   25 3

#	End of record

