#	Name: ASD01913976
#	Creating user name:	WinNT
#	Creation time:	15. 06. 2019 20:02

#	Modifying user name:	WinNT
#	Modification time:	15. 06. 2019 20:02

#	Program:	/corina/corina34_cracker 3.40 0067  02.08.2006

@<TRIPOS>MOLECULE
ASD01913976
  38   41    0    0    0
SMALL
NO_CHARGES


@<TRIPOS>ATOM
   1 N1            -0.0172     1.2887    -0.0333 N.2     
   2 N2            -0.0004    -0.0031    -0.0528 N.pl3   
   3 C3             1.2697    -0.4399    -0.0421 C.2     
   4 C4             2.0822     0.6775    -0.0190 C.2     
   5 C5             1.2177     1.7697    -0.0118 C.2     
   6 C6             3.5789     0.5595    -0.0107 C.3     
   7 C7             1.8925    -1.7767    -0.0453 C.ar    
   8 C8             1.1866    -2.9360    -0.3206 C.ar    
   9 C9             1.8448    -4.1519    -0.3204 C.ar    
  10 C10            3.2007    -4.2050    -0.0474 C.ar    
  11 C11            3.9104    -3.0534     0.2350 C.ar    
  12 C12            3.2686    -1.8258     0.2478 C.ar    
  13 O13            3.9468    -0.6967     0.5668 O.3     
  14 C14            1.6043     3.1952     0.0140 C.2     
  15 O15            2.7795     3.5061     0.0318 O.2     
  16 N16            0.6542     4.1511     0.0179 N.am    
  17 C17           -1.1872    -0.8615    -0.0822 C.3     
  18 C18            1.0173     5.4978     0.1269 C.ar    
  19 C19            0.1224     6.4199     0.6573 C.ar    
  20 C20            0.4846     7.7491     0.7634 C.ar    
  21 C21            1.7355     8.1620     0.3420 C.ar    
  22 C22            2.6273     7.2471    -0.1864 C.ar    
  23 C23            2.2742     5.9154    -0.2892 C.ar    
  24 Cl24          -1.4483     5.9022     1.1853 Cl      
  25 H25            3.9544     0.6148    -1.0325 H       
  26 H26            4.0050     1.3707     0.5796 H       
  27 H27            0.1288    -2.8906    -0.5338 H       
  28 H28            1.3009    -5.0604    -0.5330 H       
  29 H29            3.7097    -5.1574    -0.0547 H       
  30 H30            4.9680    -3.1106     0.4461 H       
  31 H31           -0.2814     3.9054    -0.0550 H       
  32 H32           -1.4672    -1.0591    -1.1169 H       
  33 H33           -0.9670    -1.8032     0.4208 H       
  34 H34           -2.0103    -0.3610     0.4278 H       
  35 H35           -0.2098     8.4664     1.1753 H       
  36 H36            2.0163     9.2015     0.4255 H       
  37 H37            3.6030     7.5732    -0.5151 H       
  38 H38            2.9735     5.2007    -0.6973 H       
@<TRIPOS>BOND
   1    1    2 1
   2    1    5 2
   3    2    3 1
   4    2   17 1
   5    3    4 2
   6    3    7 1
   7    4    5 1
   8    4    6 1
   9    5   14 1
  10    6   13 1
  11    6   25 1
  12    6   26 1
  13    7    8 ar
  14    7   12 ar
  15    8    9 ar
  16    8   27 1
  17    9   10 ar
  18    9   28 1
  19   10   11 ar
  20   10   29 1
  21   11   12 ar
  22   11   30 1
  23   12   13 1
  24   14   15 2
  25   14   16 am
  26   16   18 1
  27   16   31 1
  28   17   32 1
  29   17   33 1
  30   17   34 1
  31   18   19 ar
  32   18   23 ar
  33   19   20 ar
  34   19   24 1
  35   20   21 ar
  36   20   35 1
  37   21   22 ar
  38   21   36 1
  39   22   23 ar
  40   22   37 1
  41   23   38 1

#	End of record

