#	Name: ASD01914201
#	Creating user name:	WinNT
#	Creation time:	15. 06. 2019 20:03

#	Modifying user name:	WinNT
#	Modification time:	15. 06. 2019 20:03

#	Program:	/corina/corina34_cracker 3.40 0067  02.08.2006

@<TRIPOS>MOLECULE
ASD01914201
  39   40    0    0    0
SMALL
NO_CHARGES


@<TRIPOS>ATOM
   1 C1            -0.0339     1.5741     0.1962 C.2     
   2 C2            -0.0155     0.1056     0.3666 C.ar    
   3 C3             0.6109    -0.7026    -0.5838 C.ar    
   4 C4             0.6249    -2.0720    -0.4186 C.ar    
   5 C5             0.0195    -2.6449     0.6860 C.ar    
   6 C6            -0.6030    -1.8497     1.6315 C.ar    
   7 C7            -0.6192    -0.4782     1.4812 C.ar    
   8 O8             0.9733     2.1581    -0.1530 O.2     
   9 N9            -1.1690     2.2645     0.4226 N.am    
  10 C10           -1.1597     3.7284     0.3655 C.3     
  11 C11           -1.4694     4.1851    -1.0615 C.3     
  12 C12           -1.4600     5.6559    -1.1189 C.1     
  13 C13           -1.4525     6.8290    -1.1647 C.1     
  14 C14           -1.4434     8.2599    -1.2205 C.ar    
  15 C15           -1.7018     8.9073    -2.4293 C.ar    
  16 C16           -1.6894    10.2902    -2.4669 C.ar    
  17 C17           -1.4190    10.9829    -1.2947 C.ar    
  18 C18           -1.1715    10.2778    -0.1313 C.ar    
  19 N19           -1.1944     8.9607    -0.1202 N.ar    
  20 C20            1.2699    -0.0804    -1.7878 C.3     
  21 C21           -2.4122     1.5512     0.7259 C.3     
  22 H22            1.1092    -2.6984    -1.1530 H       
  23 H23            0.0327    -3.7177     0.8103 H       
  24 H24           -1.0737    -2.3031     2.4913 H       
  25 H25           -1.1020     0.1418     2.2221 H       
  26 H26           -1.9147     4.1233     1.0453 H       
  27 H27           -0.1772     4.0972     0.6599 H       
  28 H28           -0.7144     3.7901    -1.7413 H       
  29 H29           -2.4519     3.8162    -1.3559 H       
  30 H30           -1.9082     8.3369    -3.3229 H       
  31 H31           -1.8854    10.8191    -3.3879 H       
  32 H32           -1.4017    12.0627    -1.2915 H       
  33 H33           -0.9605    10.8144     0.7819 H       
  34 H34            2.2919     0.2032    -1.5366 H       
  35 H35            1.2833    -0.7995    -2.6068 H       
  36 H36            0.7112     0.8050    -2.0908 H       
  37 H37           -2.4743     1.3694     1.7988 H       
  38 H38           -3.2634     2.1541     0.4097 H       
  39 H39           -2.4237     0.5994     0.1949 H       
@<TRIPOS>BOND
   1    1    2 1
   2    1    8 2
   3    1    9 am
   4    2    3 ar
   5    2    7 ar
   6    3    4 ar
   7    3   20 1
   8    4    5 ar
   9    4   22 1
  10    5    6 ar
  11    5   23 1
  12    6    7 ar
  13    6   24 1
  14    7   25 1
  15    9   10 1
  16    9   21 1
  17   10   11 1
  18   10   26 1
  19   10   27 1
  20   11   12 1
  21   11   28 1
  22   11   29 1
  23   12   13 3
  24   13   14 1
  25   14   15 ar
  26   14   19 ar
  27   15   16 ar
  28   15   30 1
  29   16   17 ar
  30   16   31 1
  31   17   18 ar
  32   17   32 1
  33   18   19 ar
  34   18   33 1
  35   20   34 1
  36   20   35 1
  37   20   36 1
  38   21   37 1
  39   21   38 1
  40   21   39 1

#	End of record

