#	Name: ASD01814222
#	Creating user name:	WinNT
#	Creation time:	15. 06. 2019 19:31

#	Modifying user name:	WinNT
#	Modification time:	15. 06. 2019 19:31

#	Program:	/corina/corina34_cracker 3.40 0067  02.08.2006

@<TRIPOS>MOLECULE
ASD01814222
  37   40    0    0    0
SMALL
NO_CHARGES


@<TRIPOS>ATOM
   1 C1            -0.0167     1.3832     0.0096 C.ar    
   2 C2             0.0021    -0.0041     0.0020 C.ar    
   3 C3             1.1958    -0.6919    -0.0131 C.ar    
   4 C4             2.4007     0.0059    -0.0209 C.ar    
   5 C5             2.3789     1.4111    -0.0132 C.ar    
   6 C6             1.1632     2.0941     0.0022 C.ar    
   7 N7             3.6013    -0.6705    -0.0355 N.pl3   
   8 C8             4.7860    -0.0462    -0.0426 C.2     
   9 C9             4.8924     1.3300    -0.0362 C.2     
  10 C10            3.6622     2.1381    -0.0216 C.2     
  11 C11            6.2118     1.9776    -0.0440 C.2     
  12 O12            6.3025     3.3226    -0.0376 O.3     
  13 O13            7.2212     1.3003    -0.0561 O.2     
  14 O14            3.7023     3.3559    -0.0158 O.2     
  15 C15            3.5807    -2.1353    -0.0431 C.3     
  16 C16            3.5606    -2.6300    -1.4665 C.2     
  17 C17            4.6395    -2.8891    -2.1782 C.2     
  18 C18            4.3828    -3.3566    -3.5307 C.ar    
  19 C19            3.0143    -3.4362    -3.8020 C.ar    
  20 S20            2.0994    -2.9411    -2.3836 S.3     
  21 C21            5.2994    -3.7177    -4.5420 C.ar    
  22 C22            4.8551    -4.1355    -5.7586 C.ar    
  23 C23            3.4947    -4.2136    -6.0254 C.ar    
  24 C24            2.5799    -3.8690    -5.0590 C.ar    
  25 H25           -0.9606     1.9081     0.0170 H       
  26 H26           -0.9293    -0.5508     0.0084 H       
  27 H27            1.1970    -1.7719    -0.0186 H       
  28 H28            1.1468     3.1740     0.0081 H       
  29 H29            5.6885    -0.6393    -0.0534 H       
  30 H30            7.1917     3.7026    -0.0431 H       
  31 H31            4.4702    -2.5138     0.4605 H       
  32 H32            2.6905    -2.4889     0.4770 H       
  33 H33            5.6381    -2.7633    -1.7865 H       
  34 H34            6.3605    -3.6616    -4.3489 H       
  35 H35            5.5670    -4.4084    -6.5235 H       
  36 H36            3.1543    -4.5463    -6.9948 H       
  37 H37            1.5228    -3.9314    -5.2713 H       
@<TRIPOS>BOND
   1    1    2 ar
   2    1    6 ar
   3    1   25 1
   4    2    3 ar
   5    2   26 1
   6    3    4 ar
   7    3   27 1
   8    4    5 ar
   9    4    7 1
  10    5    6 ar
  11    5   10 1
  12    6   28 1
  13    7    8 1
  14    7   15 1
  15    8    9 2
  16    8   29 1
  17    9   10 1
  18    9   11 1
  19   10   14 2
  20   11   12 1
  21   11   13 2
  22   12   30 1
  23   15   16 1
  24   15   31 1
  25   15   32 1
  26   16   17 2
  27   16   20 1
  28   17   18 1
  29   17   33 1
  30   18   19 ar
  31   18   21 ar
  32   19   20 1
  33   19   24 ar
  34   21   22 ar
  35   21   34 1
  36   22   23 ar
  37   22   35 1
  38   23   24 ar
  39   23   36 1
  40   24   37 1

#	End of record

