#	Name: ASD01510003
#	Creating user name:	WinNT
#	Creation time:	15. 06. 2019 19:21

#	Modifying user name:	WinNT
#	Modification time:	15. 06. 2019 19:21

#	Program:	/corina/corina34_cracker 3.40 0067  02.08.2006

@<TRIPOS>MOLECULE
ASD01510003
  19   19    0    0    0
SMALL
NO_CHARGES


@<TRIPOS>ATOM
   1 N1            -0.0204     1.6518     0.0111 N.am    
   2 S2             0.0021    -0.0041     0.0020 S.o2    
   3 O3             1.3604    -0.3860    -0.1664 O.2     
   4 O4            -0.7920    -0.4222     1.1038 O.2     
   5 C5            -0.8544    -0.5343    -1.4644 C.1     
   6 C6            -1.4195    -0.8842    -2.4320 C.1     
   7 C7            -2.1089    -1.3110    -3.6124 C.ar    
   8 C8            -2.2491    -2.6715    -3.8886 C.ar    
   9 C9            -2.9148    -3.0762    -5.0274 C.ar    
  10 C10           -3.4428    -2.1363    -5.8944 C.ar    
  11 C11           -3.3069    -0.7858    -5.6265 C.ar    
  12 C12           -2.6484    -0.3681    -4.4882 C.ar    
  13 H13            0.8130     2.1481     0.0058 H       
  14 H14           -0.8669     2.1253     0.0177 H       
  15 H15           -1.8370    -3.4062    -3.2127 H       
  16 H16           -3.0237    -4.1289    -5.2425 H       
  17 H17           -3.9631    -2.4582    -6.7844 H       
  18 H18           -3.7207    -0.0570    -6.3077 H       
  19 H19           -2.5429     0.6864    -4.2802 H       
@<TRIPOS>BOND
   1    1    2 am
   2    1   13 1
   3    1   14 1
   4    2    3 2
   5    2    4 2
   6    2    5 1
   7    5    6 3
   8    6    7 1
   9    7    8 ar
  10    7   12 ar
  11    8    9 ar
  12    8   15 1
  13    9   10 ar
  14    9   16 1
  15   10   11 ar
  16   10   17 1
  17   11   12 ar
  18   11   18 1
  19   12   19 1

#	End of record

