#	Name: ASD01209088
#	Creating user name:	WinNT
#	Creation time:	15. 06. 2019 19:10

#	Modifying user name:	WinNT
#	Modification time:	15. 06. 2019 19:10

#	Program:	/corina/corina34_cracker 3.40 0067  02.08.2006

@<TRIPOS>MOLECULE
ASD01209088
  70   72    0    0    0
SMALL
NO_CHARGES


@<TRIPOS>ATOM
   1 C1             0.6323    -1.3805     1.3601 C.3     
   2 C2             1.9285    -1.3106    -3.7604 C.ar    
   3 S3            -0.5533    -1.0784     0.0208 S.o2    
   4 O4            -1.4653    -2.1623    -0.0917 O.2     
   5 O5            -1.0134     0.2655     0.0558 O.2     
   6 N6             2.6952    -1.3823    -4.9289 N.am    
   7 C7             4.0233    -1.1586    -4.8782 C.2     
   8 N8             4.7777    -1.3272    -5.9823 N.am    
   9 O9             4.5409    -0.8046    -3.8366 O.2     
  10 C10            2.0542    -1.7005    -6.2072 C.3     
  11 C11            1.7341    -0.4040    -6.9538 C.3     
  12 C12            1.1775    -0.7247    -8.3521 C.3     
  13 C13           -0.2440    -0.1280    -8.4081 C.3     
  14 C14           -0.2273     0.9940    -7.3405 C.3     
  15 C15            0.6313     0.3764    -6.2089 C.3     
  16 C16            1.3280    -2.4544    -3.2510 C.ar    
  17 C17            0.5719    -2.3803    -2.0976 C.ar    
  18 C18            0.4126    -1.1688    -1.4501 C.ar    
  19 C19            1.0093    -0.0281    -1.9549 C.ar    
  20 C20            1.7713    -0.0966    -3.1047 C.ar    
  21 C21            6.1623    -1.1959    -5.9064 C.ar    
  22 C22            6.9218    -1.2553    -7.0706 C.ar    
  23 P23           12.6660    -0.4313    -4.2097 P.3     
  24 O24           12.9745     0.8828    -3.6029 O.2     
  25 O25           13.3581    -0.5285    -5.6601 O.3     
  26 O26           13.2330    -1.6051    -3.2648 O.3     
  27 C27           14.7563    -0.3217    -5.8707 C.3     
  28 C28           15.0781    -0.4873    -7.3573 C.3     
  29 C29           14.5986    -1.6794    -2.8504 C.3     
  30 C30           14.7965    -2.9112    -1.9647 C.3     
  31 C31            8.2941    -1.1239    -6.9885 C.ar    
  32 C32            8.8703    -0.9345    -5.7257 C.ar    
  33 C33            8.0426    -0.8859    -4.6045 C.ar    
  34 N34            6.7371    -1.0107    -4.7278 N.ar    
  35 C35           10.3340    -0.7889    -5.5838 C.2     
  36 C36           10.8693    -0.6101    -4.3839 C.2     
  37 H37            1.0846    -2.3636     1.2300 H       
  38 H38            1.4097    -0.6168     1.3362 H       
  39 H39            0.1150    -1.3424     2.3187 H       
  40 H40            4.3564    -1.5401    -6.8297 H       
  41 H41            2.7278    -2.3099    -6.8096 H       
  42 H42            1.1317    -2.2514    -6.0239 H       
  43 H43            2.6319     0.2080    -7.0407 H       
  44 H44            1.8047    -0.2676    -9.1175 H       
  45 H45            1.1355    -1.8039    -8.4988 H       
  46 H46           -0.4445     0.2879    -9.3955 H       
  47 H47           -0.9858    -0.8852    -8.1543 H       
  48 H48            0.2429     1.8950    -7.7343 H       
  49 H49           -1.2365     1.2063    -6.9875 H       
  50 H50            0.0309    -0.2994    -5.5999 H       
  51 H51            1.0696     1.1604    -5.5914 H       
  52 H52            1.4517    -3.4008    -3.7564 H       
  53 H53            0.1043    -3.2694    -1.7011 H       
  54 H54            0.8827     0.9167    -1.4471 H       
  55 H55            2.2374     0.7947    -3.4982 H       
  56 H56            6.4436    -1.4029    -8.0277 H       
  57 H57           15.0272     0.6842    -5.5502 H       
  58 H58           15.3227    -1.0521    -5.2929 H       
  59 H59           16.1446    -0.3296    -7.5180 H       
  60 H60           14.8072    -1.4932    -7.6779 H       
  61 H61           14.5117     0.2431    -7.9352 H       
  62 H62           15.2409    -1.7556    -3.7277 H       
  63 H63           14.8568    -0.7821    -2.2879 H       
  64 H64           14.5382    -3.8084    -2.5272 H       
  65 H65           15.8381    -2.9678    -1.6485 H       
  66 H66           14.1541    -2.8349    -1.0874 H       
  67 H67            8.9080    -1.1664    -7.8760 H       
  68 H68            8.4758    -0.7403    -3.6260 H       
  69 H69           10.9678    -0.8281    -6.4574 H       
  70 H70           10.2355    -0.5708    -3.5103 H       
@<TRIPOS>BOND
   1    1    3 1
   2    1   37 1
   3    1   38 1
   4    1   39 1
   5    2    6 1
   6    2   16 ar
   7    2   20 ar
   8    3    4 2
   9    3    5 2
  10    3   18 1
  11    6    7 am
  12    6   10 1
  13    7    8 am
  14    7    9 2
  15    8   21 1
  16    8   40 1
  17   10   11 1
  18   10   41 1
  19   10   42 1
  20   11   12 1
  21   11   15 1
  22   11   43 1
  23   12   13 1
  24   12   44 1
  25   12   45 1
  26   13   14 1
  27   13   46 1
  28   13   47 1
  29   14   15 1
  30   14   48 1
  31   14   49 1
  32   15   50 1
  33   15   51 1
  34   16   17 ar
  35   16   52 1
  36   17   18 ar
  37   17   53 1
  38   18   19 ar
  39   19   20 ar
  40   19   54 1
  41   20   55 1
  42   21   22 ar
  43   21   34 ar
  44   22   31 ar
  45   22   56 1
  46   23   24 2
  47   23   25 1
  48   23   26 1
  49   23   36 1
  50   25   27 1
  51   26   29 1
  52   27   28 1
  53   27   57 1
  54   27   58 1
  55   28   59 1
  56   28   60 1
  57   28   61 1
  58   29   30 1
  59   29   62 1
  60   29   63 1
  61   30   64 1
  62   30   65 1
  63   30   66 1
  64   31   32 ar
  65   31   67 1
  66   32   33 ar
  67   32   35 1
  68   33   34 ar
  69   33   68 1
  70   35   36 2
  71   35   69 1
  72   36   70 1

#	End of record

