#	Name: ASD06610038
#	Creating user name:	WinNT
#	Creation time:	15. 06. 2019 21:07

#	Modifying user name:	WinNT
#	Modification time:	15. 06. 2019 21:07

#	Program:	/corina/corina34_cracker 3.40 0067  02.08.2006

@<TRIPOS>MOLECULE
ASD06610038
 293  293    0    0    0
SMALL
NO_CHARGES


@<TRIPOS>ATOM
   1 C1            -0.1586    13.3214     0.3388 C.2     
   2 O2             0.3174    12.2060     0.3544 O.2     
   3 N3             2.1123    14.1538     0.5730 N.3     
   4 C4             0.7406    14.5225     0.1981 C.3     
   5 C5             0.7212    15.0070    -1.2530 C.3     
   6 C6             1.5339    16.2980    -1.3705 C.3     
   7 C7             1.5145    16.7826    -2.8216 C.3     
   8 N8             2.2926    18.0188    -2.9341 N.pl3   
   9 C9             2.4180    18.6433    -4.1520 C.2     
  10 N10            1.9426    18.0795    -5.2248 N.2     
  11 N11            3.0486    19.8696    -4.2377 N.am    
  12 C12           -3.7441    12.6632     0.0665 C.2     
  13 O13           -3.9724    13.7750    -0.3610 O.2     
  14 N14           -1.4923    13.4864     0.4416 N.am    
  15 C15           -2.3670    12.3185     0.5722 C.3     
  16 C16           -2.4521    11.9071     2.0434 C.3     
  17 O17           -3.0910    12.9435     2.7916 O.3     
  18 C18           -7.0766    11.1725     0.2545 C.2     
  19 O19           -6.7177    10.3347     1.0546 O.2     
  20 N20           -4.7220    11.7360     0.0892 N.am    
  21 C21           -6.0607    12.0711    -0.4025 C.3     
  22 C22           -6.1111    11.8746    -1.9190 C.3     
  23 O23           -5.9309    10.4907    -2.2262 O.3     
  24 C24          -10.5875    10.3130    -0.2915 C.2     
  25 O25          -10.6253    10.9037    -1.3501 O.2     
  26 N26           -8.3840    11.3000    -0.0471 N.am    
  27 C27           -9.3716    10.4264     0.5915 C.3     
  28 C28           -9.7765    11.0173     1.9435 C.3     
  29 C29           -8.5686    11.0170     2.8825 C.3     
  30 C30           -8.9735    11.6079     4.2345 C.3     
  31 N31           -7.8169    11.6077     5.1337 N.pl3   
  32 C32           -7.9407    12.0953     6.4131 C.2     
  33 N33           -6.9117    12.0951     7.2131 N.2     
  34 N34           -9.1500    12.5832     6.8487 N.pl3   
  35 C35          -14.0169     9.1025     0.0785 C.2     
  36 O36          -13.8980     8.9643     1.2775 O.2     
  37 N37          -11.6328     9.5552     0.0951 N.am    
  38 C38          -12.8148     9.4449    -0.7634 C.3     
  39 C39          -12.5897     8.3445    -1.8023 C.3     
  40 C40          -11.4477     8.7506    -2.7361 C.3     
  41 C41          -11.2260     7.6668    -3.7594 C.2     
  42 O42          -11.9110     6.6716    -3.7435 O.2     
  43 O43          -10.2675     7.8069    -4.6885 O.3     
  44 C44          -17.4206     7.9189    -0.5351 C.2     
  45 O45          -17.1989     7.7190    -1.7106 O.2     
  46 N46          -15.2241     8.9500    -0.5010 N.am    
  47 C47          -16.3927     8.6172     0.3174 C.3     
  48 C48          -16.9944     9.9007     0.8931 C.3     
  49 C49          -15.9955    10.5447     1.8567 C.3     
  50 C50          -16.5972    11.8282     2.4324 C.3     
  51 C51          -15.5983    12.4722     3.3960 C.3     
  52 N52          -16.1760    13.7045     3.9488 N.3     
  53 C53          -20.9539     7.0359    -0.2203 C.2     
  54 O54          -21.0818     7.6805     0.7990 O.2     
  55 N55          -18.5864     7.5167     0.0087 N.am    
  56 C56          -19.5857     6.8379    -0.8200 C.3     
  57 C57          -19.2671     5.3426    -0.8810 C.3     
  58 C58          -17.9339     5.1342    -1.6023 C.3     
  59 C59          -17.6154     3.6390    -1.6633 C.3     
  60 N60          -16.3389     3.4395    -2.3539 N.pl3   
  61 C61          -15.8437     2.1690    -2.5298 C.2     
  62 N62          -16.5100     1.1421    -2.0822 N.2     
  63 N63          -14.6458     1.9818    -3.1779 N.pl3   
  64 C64          -24.2700     5.5624    -0.6627 C.2     
  65 O65          -23.8452     4.6850    -1.3843 O.2     
  66 N66          -22.0356     6.4966    -0.8167 N.am    
  67 C67          -23.3657     6.6891    -0.2338 C.3     
  68 C68          -23.9459     8.0203    -0.7156 C.3     
  69 C69          -23.0965     9.1723    -0.1749 C.3     
  70 C70          -23.6767    10.5035    -0.6567 C.3     
  71 N71          -22.8633    11.6066    -0.1391 N.pl3   
  72 C72          -23.1943    12.9060    -0.4426 C.2     
  73 N73          -22.4706    13.8874     0.0180 N.2     
  74 N74          -24.2885    13.1703    -1.2319 N.pl3   
  75 C75          -27.8639     4.8955    -0.6138 C.2     
  76 O76          -28.1258     6.0274    -0.2659 O.2     
  77 N77          -25.5508     5.5298    -0.2444 N.am    
  78 C78          -26.4299     4.4345    -0.6613 C.3     
  79 C79          -26.2451     3.2447     0.2826 C.3     
  80 O80          -26.6848     3.6041     1.5939 O.3     
  81 C81          -31.1541     3.3066    -0.7289 C.2     
  82 O82          -30.6810     2.1930    -0.6455 O.2     
  83 N83          -28.8553     4.0498    -0.9579 N.am    
  84 C84          -30.2493     4.4979    -0.9116 C.3     
  85 C85          -30.6002     5.2088    -2.2202 C.3     
  86 C86          -33.6305     1.5785    -1.6455 C.2     
  87 O87          -33.1428     1.9550    -2.6901 O.2     
  88 N88          -32.4889     3.4788    -0.6581 N.am    
  89 C89          -33.3606     2.3368    -0.3714 C.3     
  90 C90          -34.6825     2.8384     0.2133 C.3     
  91 C91          -34.4303     3.4648     1.5606 C.2     
  92 O92          -33.3284     3.4139     2.0537 O.2     
  93 O93          -35.4297     4.0793     2.2127 O.3     
  94 C94          -36.1989    -0.6388    -2.8267 C.2     
  95 O95          -36.8531    -0.4642    -1.8205 O.2     
  96 N96          -34.4139     0.4821    -1.6240 N.am    
  97 C97          -34.7593    -0.1960    -2.8759 C.3     
  98 C98          -33.8562    -1.4172    -3.0604 C.3     
  99 C99          -33.9339    -2.3019    -1.8146 C.3     
 100 C100         -35.3271    -2.9268    -1.7190 C.3     
 101 C101         -32.4122    -0.9566    -3.2696 C.3     
 102 C102         -38.3138    -2.8397    -4.8383 C.2     
 103 O103         -37.3909    -3.1634    -5.5555 O.2     
 104 N104         -36.7596    -1.2288    -3.9010 N.am    
 105 C105         -38.1300    -1.7408    -3.8236 C.3     
 106 C106         -39.1152    -0.6071    -4.1154 C.3     
 107 C107         -39.0171     0.4351    -3.0314 C.ar    
 108 C108         -38.1279     1.4855    -3.1609 C.ar    
 109 C109         -38.0379     2.4415    -2.1665 C.ar    
 110 C110         -38.8375     2.3474    -1.0428 C.ar    
 111 C111         -39.7274     1.2975    -0.9137 C.ar    
 112 C112         -39.8205     0.3438    -1.9101 C.ar    
 113 C113         -40.0373    -3.9281    -7.2700 C.2     
 114 O114         -40.1313    -2.7290    -7.3854 O.2     
 115 N115         -39.5038    -3.4628    -4.9488 N.am    
 116 C116         -39.6824    -4.5311    -5.9353 C.3     
 117 C117         -40.8084    -5.4620    -5.4807 C.3     
 118 C118         -40.9121    -6.6455    -6.4447 C.3     
 119 C119         -41.9521    -7.6388    -5.9227 C.3     
 120 C120         -42.1319    -4.6945    -5.4709 C.3     
 121 O121         -40.2489    -4.7231    -8.3307 O.3     
 122 C122           3.4220    20.5153    -3.1151 C.2     
 123 O123           3.2853    19.9818    -2.0349 O.2     
 124 C124          10.5333    35.2526     6.0188 C.3     
 125 C125           9.9369    33.8465     6.1075 C.3     
 126 C126           9.6013    33.3452     4.7015 C.3     
 127 C127           9.0049    31.9390     4.7902 C.3     
 128 C128           8.6694    31.4377     3.3841 C.3     
 129 C129           8.0730    30.0315     3.4729 C.3     
 130 C130           7.7374    29.5302     2.0668 C.3     
 131 C131           7.1410    28.1240     2.1555 C.3     
 132 C132           6.8054    27.6228     0.7495 C.3     
 133 C133           6.2090    26.2166     0.8382 C.3     
 134 C134           5.8734    25.7153    -0.5679 C.3     
 135 C135           5.2770    24.3091    -0.4791 C.3     
 136 C136           4.9414    23.8078    -1.8852 C.3     
 137 C137           4.3450    22.4016    -1.7965 C.3     
 138 C138           4.0094    21.9004    -3.2025 C.3     
 139 H139           2.1632    13.8915     1.5460 H       
 140 H140           2.4631    13.4159    -0.0192 H       
 141 H141           0.3871    15.3196     0.8521 H       
 142 H142           1.1574    14.2433    -1.8969 H       
 143 H143          -0.3076    15.1962    -1.5591 H       
 144 H144           1.0977    17.0618    -0.7266 H       
 145 H145           2.5627    16.1089    -1.0643 H       
 146 H146           1.9506    16.0189    -3.4655 H       
 147 H147           0.4856    16.9717    -3.1278 H       
 148 H148           2.7192    18.3964    -2.1491 H       
 149 H149           1.9658    18.5516    -6.0718 H       
 150 H150           3.2227    20.2659    -5.1058 H       
 151 H151          -1.8730    14.3785     0.4291 H       
 152 H152          -1.9611    11.4933    -0.0129 H       
 153 H153          -3.0300    10.9870     2.1305 H       
 154 H154          -1.4476    11.7436     2.4337 H       
 155 H155          -3.1794    12.7503     3.7350 H       
 156 H156          -4.5394    10.8468     0.4311 H       
 157 H157          -6.2861    13.1103    -0.1630 H       
 158 H158          -7.0777    12.2078    -2.2966 H       
 159 H159          -5.3177    12.4571    -2.3873 H       
 160 H160          -5.9516    10.2920    -3.1724 H       
 161 H161          -8.6711    11.9700    -0.6870 H       
 162 H162          -8.9385     9.4376     0.7422 H       
 163 H163         -10.1271    12.0398     1.8028 H       
 164 H164         -10.5749    10.4160     2.3783 H       
 165 H165          -8.2180     9.9946     3.0232 H       
 166 H166          -7.7702    11.6183     2.4477 H       
 167 H167          -9.3241    12.6304     4.0938 H       
 168 H168          -9.7719    11.0066     4.6694 H       
 169 H169          -6.9637    11.2634     4.8263 H       
 170 H170          -6.9991    12.4392     8.1158 H       
 171 H171          -9.9158    12.5834     6.2534 H       
 172 H172          -9.2374    12.9273     7.7515 H       
 173 H173         -11.6025     9.0827     0.9417 H       
 174 H174         -12.9851    10.3944    -1.2709 H       
 175 H175         -12.3318     7.4142    -1.2962 H       
 176 H176         -13.5007     8.2015    -2.3834 H       
 177 H177         -11.7056     9.6809    -3.2422 H       
 178 H178         -10.5366     8.8936    -2.1550 H       
 179 H179         -10.1628     7.0853    -5.3237 H       
 180 H180         -15.3192     9.0606    -1.4600 H       
 181 H181         -16.0900     7.9602     1.1328 H       
 182 H182         -17.2153    10.5942     0.0818 H       
 183 H183         -17.9137     9.6629     1.4282 H       
 184 H184         -15.7746     9.8512     2.6681 H       
 185 H185         -15.0762    10.7826     1.3216 H       
 186 H186         -16.8181    12.5217     1.6210 H       
 187 H187         -17.5165    11.5903     2.9675 H       
 188 H188         -15.3774    11.7787     4.2074 H       
 189 H189         -14.6790    12.7100     2.8609 H       
 190 H190         -15.5350    14.1490     4.5888 H       
 191 H191         -16.4491    14.3379     3.2123 H       
 192 H192         -18.7637     7.6766     0.9489 H       
 193 H193         -19.5665     7.2548    -1.8269 H       
 194 H194         -19.1987     4.9441     0.1312 H       
 195 H195         -20.0582     4.8244    -1.4228 H       
 196 H196         -18.0023     5.5327    -2.6145 H       
 197 H197         -17.1428     5.6525    -1.0604 H       
 198 H198         -17.5470     3.2405    -0.6510 H       
 199 H199         -18.4065     3.1208    -2.2051 H       
 200 H200         -15.8430     4.2037    -2.6870 H       
 201 H201         -16.1607     0.2457    -2.2063 H       
 202 H202         -14.1500     2.7460    -3.5111 H       
 203 H203         -14.2965     1.0854    -3.3021 H       
 204 H204         -21.9333     5.9810    -1.6320 H       
 205 H205         -23.2880     6.6988     0.8534 H       
 206 H206         -23.9412     8.0456    -1.8052 H       
 207 H207         -24.9692     8.1227    -0.3542 H       
 208 H208         -23.1012     9.1470     0.9147 H       
 209 H209         -22.0732     9.0699    -0.5363 H       
 210 H210         -23.6719    10.5288    -1.7464 H       
 211 H211         -24.6999    10.6059    -0.2954 H       
 212 H212         -22.0913    11.4201     0.4178 H       
 213 H213         -22.7041    14.8042    -0.1962 H       
 214 H214         -24.8270    12.4399    -1.5746 H       
 215 H215         -24.5220    14.0871    -1.4460 H       
 216 H216         -25.8906     6.2315     0.3327 H       
 217 H217         -26.1784     4.1339    -1.6784 H       
 218 H218         -26.8316     2.3999    -0.0785 H       
 219 H219         -25.1914     2.9676     0.3160 H       
 220 H220         -26.5966     2.8959     2.2463 H       
 221 H221         -28.6458     3.1445    -1.2361 H       
 222 H222         -30.3822     5.1864    -0.0772 H       
 223 H223         -31.6374     5.5422    -2.1858 H       
 224 H224         -29.9458     6.0704    -2.3524 H       
 225 H225         -30.4674     4.5203    -3.0547 H       
 226 H226         -32.8725     4.3589    -0.7971 H       
 227 H227         -32.8722     1.6783     0.3468 H       
 228 H228         -35.1179     3.5800    -0.4564 H       
 229 H229         -35.3713     2.0010     0.3252 H       
 230 H230         -35.2197     4.4661     3.0737 H       
 231 H231         -34.7491     0.1419    -0.7797 H       
 232 H232         -34.6184     0.4897    -3.7114 H       
 233 H233         -34.1861    -1.9849    -3.9304 H       
 234 H234         -33.1854    -3.0914    -1.8824 H       
 235 H235         -33.7451    -1.6975    -0.9274 H       
 236 H236         -36.0527    -2.1580    -1.4533 H       
 237 H237         -35.5962    -3.3636    -2.6807 H       
 238 H238         -35.3251    -3.7040    -0.9547 H       
 239 H239         -32.0415    -0.4958    -2.3540 H       
 240 H240         -31.7899    -1.8152    -3.5220 H       
 241 H241         -32.3764    -0.2307    -4.0820 H       
 242 H242         -36.2557    -1.3145    -4.7254 H       
 243 H243         -38.3149    -2.1345    -2.8241 H       
 244 H244         -38.8739    -0.1547    -5.0773 H       
 245 H245         -40.1292    -1.0058    -4.1456 H       
 246 H246         -37.5031     1.5590    -4.0388 H       
 247 H247         -37.3426     3.2618    -2.2673 H       
 248 H248         -38.7667     3.0939    -0.2655 H       
 249 H249         -40.3519     1.2237    -0.0357 H       
 250 H250         -40.5184    -0.4744    -1.8110 H       
 251 H251         -40.2419    -3.2039    -4.3752 H       
 252 H252         -38.7566    -5.0989    -6.0277 H       
 253 H253         -40.5936    -5.8287    -4.4769 H       
 254 H254         -41.2140    -6.2870    -7.4289 H       
 255 H255         -39.9433    -7.1394    -6.5193 H       
 256 H256         -41.6503    -7.9973    -4.9386 H       
 257 H257         -42.9210    -7.1449    -5.8481 H       
 258 H258         -42.0261    -8.4820    -6.6095 H       
 259 H259         -42.9341    -5.3577    -5.1471 H       
 260 H260         -42.0580    -3.8514    -4.7841 H       
 261 H261         -42.3467    -4.3278    -6.4747 H       
 262 H262         -40.4739    -4.2904    -9.1657 H       
 263 H263          11.4415    35.2248     5.4166 H       
 264 H264           9.8110    35.9251     5.5561 H       
 265 H265          10.7724    35.6098     7.0205 H       
 266 H266          10.6593    33.1740     6.5702 H       
 267 H267           9.0288    33.8743     6.7097 H       
 268 H268           8.8790    34.0177     4.2388 H       
 269 H269          10.5095    33.3173     4.0993 H       
 270 H270           9.7273    31.2665     5.2529 H       
 271 H271           8.0968    31.9668     5.3924 H       
 272 H272           7.9470    32.1102     2.9214 H       
 273 H273           9.5775    31.4099     2.7819 H       
 274 H274           8.7953    29.3590     3.9356 H       
 275 H275           7.1648    30.0593     4.0750 H       
 276 H276           7.0150    30.2027     1.6041 H       
 277 H277           8.6455    29.5024     1.4646 H       
 278 H278           7.8633    27.4516     2.6182 H       
 279 H279           6.2328    28.1519     2.7577 H       
 280 H280           6.0831    28.2952     0.2868 H       
 281 H281           7.7135    27.5949     0.1473 H       
 282 H282           6.9313    25.5441     1.3009 H       
 283 H283           5.3009    26.2444     1.4404 H       
 284 H284           5.1511    26.3878    -1.0306 H       
 285 H285           6.7815    25.6875    -1.1701 H       
 286 H286           5.9993    23.6366    -0.0164 H       
 287 H287           4.3689    24.3369     0.1230 H       
 288 H288           4.2191    24.4803    -2.3479 H       
 289 H289           5.8495    23.7800    -2.4874 H       
 290 H290           5.0673    21.7292    -1.3338 H       
 291 H291           3.4369    22.4295    -1.1943 H       
 292 H292           4.9176    21.8725    -3.8047 H       
 293 H293           3.2871    22.5728    -3.6652 H       
@<TRIPOS>BOND
   1    1    2 2
   2    1    4 1
   3    1   14 am
   4    3    4 1
   5    3  139 1
   6    3  140 1
   7    4    5 1
   8    4  141 1
   9    5    6 1
  10    5  142 1
  11    5  143 1
  12    6    7 1
  13    6  144 1
  14    6  145 1
  15    7    8 1
  16    7  146 1
  17    7  147 1
  18    8    9 1
  19    8  148 1
  20    9   10 2
  21    9   11 1
  22   10  149 1
  23   11  122 am
  24   11  150 1
  25   12   13 2
  26   12   15 1
  27   12   20 am
  28   14   15 1
  29   14  151 1
  30   15   16 1
  31   15  152 1
  32   16   17 1
  33   16  153 1
  34   16  154 1
  35   17  155 1
  36   18   19 2
  37   18   21 1
  38   18   26 am
  39   20   21 1
  40   20  156 1
  41   21   22 1
  42   21  157 1
  43   22   23 1
  44   22  158 1
  45   22  159 1
  46   23  160 1
  47   24   25 2
  48   24   27 1
  49   24   37 am
  50   26   27 1
  51   26  161 1
  52   27   28 1
  53   27  162 1
  54   28   29 1
  55   28  163 1
  56   28  164 1
  57   29   30 1
  58   29  165 1
  59   29  166 1
  60   30   31 1
  61   30  167 1
  62   30  168 1
  63   31   32 1
  64   31  169 1
  65   32   33 2
  66   32   34 1
  67   33  170 1
  68   34  171 1
  69   34  172 1
  70   35   36 2
  71   35   38 1
  72   35   46 am
  73   37   38 1
  74   37  173 1
  75   38   39 1
  76   38  174 1
  77   39   40 1
  78   39  175 1
  79   39  176 1
  80   40   41 1
  81   40  177 1
  82   40  178 1
  83   41   42 2
  84   41   43 1
  85   43  179 1
  86   44   45 2
  87   44   47 1
  88   44   55 am
  89   46   47 1
  90   46  180 1
  91   47   48 1
  92   47  181 1
  93   48   49 1
  94   48  182 1
  95   48  183 1
  96   49   50 1
  97   49  184 1
  98   49  185 1
  99   50   51 1
 100   50  186 1
 101   50  187 1
 102   51   52 1
 103   51  188 1
 104   51  189 1
 105   52  190 1
 106   52  191 1
 107   53   54 2
 108   53   56 1
 109   53   66 am
 110   55   56 1
 111   55  192 1
 112   56   57 1
 113   56  193 1
 114   57   58 1
 115   57  194 1
 116   57  195 1
 117   58   59 1
 118   58  196 1
 119   58  197 1
 120   59   60 1
 121   59  198 1
 122   59  199 1
 123   60   61 1
 124   60  200 1
 125   61   62 2
 126   61   63 1
 127   62  201 1
 128   63  202 1
 129   63  203 1
 130   64   65 2
 131   64   67 1
 132   64   77 am
 133   66   67 1
 134   66  204 1
 135   67   68 1
 136   67  205 1
 137   68   69 1
 138   68  206 1
 139   68  207 1
 140   69   70 1
 141   69  208 1
 142   69  209 1
 143   70   71 1
 144   70  210 1
 145   70  211 1
 146   71   72 1
 147   71  212 1
 148   72   73 2
 149   72   74 1
 150   73  213 1
 151   74  214 1
 152   74  215 1
 153   75   76 2
 154   75   78 1
 155   75   83 am
 156   77   78 1
 157   77  216 1
 158   78   79 1
 159   78  217 1
 160   79   80 1
 161   79  218 1
 162   79  219 1
 163   80  220 1
 164   81   82 2
 165   81   84 1
 166   81   88 am
 167   83   84 1
 168   83  221 1
 169   84   85 1
 170   84  222 1
 171   85  223 1
 172   85  224 1
 173   85  225 1
 174   86   87 2
 175   86   89 1
 176   86   96 am
 177   88   89 1
 178   88  226 1
 179   89   90 1
 180   89  227 1
 181   90   91 1
 182   90  228 1
 183   90  229 1
 184   91   92 2
 185   91   93 1
 186   93  230 1
 187   94   95 2
 188   94   97 1
 189   94  104 am
 190   96   97 1
 191   96  231 1
 192   97   98 1
 193   97  232 1
 194   98   99 1
 195   98  101 1
 196   98  233 1
 197   99  100 1
 198   99  234 1
 199   99  235 1
 200  100  236 1
 201  100  237 1
 202  100  238 1
 203  101  239 1
 204  101  240 1
 205  101  241 1
 206  102  103 2
 207  102  105 1
 208  102  115 am
 209  104  105 1
 210  104  242 1
 211  105  106 1
 212  105  243 1
 213  106  107 1
 214  106  244 1
 215  106  245 1
 216  107  108 ar
 217  107  112 ar
 218  108  109 ar
 219  108  246 1
 220  109  110 ar
 221  109  247 1
 222  110  111 ar
 223  110  248 1
 224  111  112 ar
 225  111  249 1
 226  112  250 1
 227  113  114 2
 228  113  116 1
 229  113  121 1
 230  115  116 1
 231  115  251 1
 232  116  117 1
 233  116  252 1
 234  117  118 1
 235  117  120 1
 236  117  253 1
 237  118  119 1
 238  118  254 1
 239  118  255 1
 240  119  256 1
 241  119  257 1
 242  119  258 1
 243  120  259 1
 244  120  260 1
 245  120  261 1
 246  121  262 1
 247  122  123 2
 248  122  138 1
 249  124  125 1
 250  124  263 1
 251  124  264 1
 252  124  265 1
 253  125  126 1
 254  125  266 1
 255  125  267 1
 256  126  127 1
 257  126  268 1
 258  126  269 1
 259  127  128 1
 260  127  270 1
 261  127  271 1
 262  128  129 1
 263  128  272 1
 264  128  273 1
 265  129  130 1
 266  129  274 1
 267  129  275 1
 268  130  131 1
 269  130  276 1
 270  130  277 1
 271  131  132 1
 272  131  278 1
 273  131  279 1
 274  132  133 1
 275  132  280 1
 276  132  281 1
 277  133  134 1
 278  133  282 1
 279  133  283 1
 280  134  135 1
 281  134  284 1
 282  134  285 1
 283  135  136 1
 284  135  286 1
 285  135  287 1
 286  136  137 1
 287  136  288 1
 288  136  289 1
 289  137  138 1
 290  137  290 1
 291  137  291 1
 292  138  292 1
 293  138  293 1

#	End of record

