#	Name: ASD01320148
#	Creating user name:	WinNT
#	Creation time:	15. 06. 2019 19:16

#	Modifying user name:	WinNT
#	Modification time:	15. 06. 2019 19:16

#	Program:	/corina/corina34_cracker 3.40 0067  02.08.2006

@<TRIPOS>MOLECULE
ASD01320148
  35   38    0    0    0
SMALL
NO_CHARGES


@<TRIPOS>ATOM
   1 Cl1            0.0021    -0.0041     0.0020 Cl      
   2 C2            -0.0215     1.7317     0.0116 C.2     
   3 C3             1.0570     2.4915     0.0053 C.2     
   4 C4             0.7901     3.9232     0.0151 C.2     
   5 C5             1.4724     5.1708     0.0150 C.2     
   6 C6             0.5320     6.1551     0.0288 C.2     
   7 N7            -0.7184     5.5686     0.0375 N.pl3   
   8 C8            -0.5628     4.2026     0.0291 C.2     
   9 S9            -1.4819     2.7022     0.0231 S.3     
  10 C10            0.8012     7.5949     0.0343 C.2     
  11 O11            1.9492     7.9995     0.0263 O.2     
  12 N12           -0.2222     8.4718     0.0482 N.am    
  13 C13            0.0470     9.9118     0.0537 C.3     
  14 C14           -1.1499    10.6545    -0.5412 C.3     
  15 C15           -1.0024    12.1322    -0.2876 C.ar    
  16 C16           -1.4645    13.0450    -1.2144 C.ar    
  17 C17           -1.3275    14.4010    -0.9781 C.ar    
  18 C18           -0.7283    14.8461     0.1857 C.ar    
  19 C19           -0.2642    13.9374     1.1171 C.ar    
  20 C20           -0.4000    12.5759     0.8826 C.ar    
  21 N21            0.0668    11.6507     1.8213 N.am    
  22 C22            0.2839    10.3706     1.4673 C.2     
  23 O23            0.6747     9.5773     2.2973 O.2     
  24 H24            2.0573     2.0845    -0.0057 H       
  25 H25            2.5431     5.3119     0.0061 H       
  26 H26           -1.5652     6.0416     0.0480 H       
  27 H27           -1.1371     8.1494     0.0545 H       
  28 H28            0.9342    10.1165    -0.5455 H       
  29 H29           -1.1928    10.4728    -1.6151 H       
  30 H30           -2.0678    10.2959    -0.0754 H       
  31 H31           -1.9329    12.7002    -2.1244 H       
  32 H32           -1.6890    15.1137    -1.7046 H       
  33 H33           -0.6227    15.9055     0.3668 H       
  34 H34            0.2041    14.2857     2.0258 H       
  35 H35            0.2360    11.9336     2.7335 H       
@<TRIPOS>BOND
   1    1    2 1
   2    2    3 2
   3    2    9 1
   4    3    4 1
   5    3   24 1
   6    4    5 1
   7    4    8 2
   8    5    6 2
   9    5   25 1
  10    6    7 1
  11    6   10 1
  12    7    8 1
  13    7   26 1
  14    8    9 1
  15   10   11 2
  16   10   12 am
  17   12   13 1
  18   12   27 1
  19   13   14 1
  20   13   22 1
  21   13   28 1
  22   14   15 1
  23   14   29 1
  24   14   30 1
  25   15   16 ar
  26   15   20 ar
  27   16   17 ar
  28   16   31 1
  29   17   18 ar
  30   17   32 1
  31   18   19 ar
  32   18   33 1
  33   19   20 ar
  34   19   34 1
  35   20   21 1
  36   21   22 am
  37   21   35 1
  38   22   23 2

#	End of record

