#	Name: ASD01914131
#	Creating user name:	WinNT
#	Creation time:	15. 06. 2019 20:02

#	Modifying user name:	WinNT
#	Modification time:	15. 06. 2019 20:02

#	Program:	/corina/corina34_cracker 3.40 0067  02.08.2006

@<TRIPOS>MOLECULE
ASD01914131
  47   50    0    0    0
SMALL
NO_CHARGES


@<TRIPOS>ATOM
   1 C1            -0.9252     1.6403    -0.2016 C.2     
   2 C2            -0.7506     0.1821    -0.1938 C.2     
   3 N3            -1.7089    -0.7302    -0.1223 N.2     
   4 C4            -1.0796    -1.9142    -0.1465 C.2     
   5 N5             0.1976    -1.6815    -0.2293 N.2     
   6 O6             0.4119    -0.4882    -0.2638 O.3     
   7 C7            -1.7341    -3.2704    -0.0878 C.3     
   8 C8            -1.3862    -4.0606    -1.3514 C.3     
   9 C9            -2.0771    -5.4255    -1.3079 C.3     
  10 C10           -1.5728    -6.2102    -0.0927 C.3     
  11 N11           -1.7721    -5.3943     1.1129 N.am    
  12 C12           -1.2260    -4.0306     1.1413 C.3     
  13 C13           -0.0839    -6.5185    -0.2630 C.3     
  14 C14           -2.4430    -5.8875     2.1726 C.2     
  15 C15           -2.5239    -5.1068     3.4242 C.ar    
  16 C16           -1.4028    -4.4199     3.9083 C.ar    
  17 C17           -1.5295    -3.7039     5.0834 C.ar    
  18 C18           -2.7513    -3.6883     5.7400 C.ar    
  19 N19           -3.7916    -4.3464     5.2588 N.ar    
  20 C20           -3.7197    -5.0370     4.1401 C.ar    
  21 O21           -2.9816    -6.9749     2.0986 O.2     
  22 C22            0.0735     2.5715    -0.2759 C.2     
  23 C23           -0.5324     3.8337    -0.2541 C.2     
  24 C24           -1.8703     3.6485    -0.1682 C.2     
  25 N25           -2.1225     2.3137    -0.1414 N.pl3   
  26 C26            0.1784     5.1611    -0.3151 C.3     
  27 F27           -2.8798    -2.9900     6.8894 F       
  28 H28           -2.8153    -3.1499    -0.0203 H       
  29 H29           -1.7249    -3.5099    -2.2289 H       
  30 H30           -0.3067    -4.2016    -1.4057 H       
  31 H31           -3.1551    -5.2852    -1.2286 H       
  32 H32           -1.8477    -5.9785    -2.2188 H       
  33 H33           -2.1327    -7.1409    -0.0007 H       
  34 H34           -0.1370    -4.0726     1.1205 H       
  35 H35           -1.5570    -3.5232     2.0474 H       
  36 H36            0.4729    -5.5854    -0.3483 H       
  37 H37            0.2728    -7.0768     0.6025 H       
  38 H38            0.0631    -7.1131    -1.1647 H       
  39 H39           -0.4631    -4.4496     3.3767 H       
  40 H40           -0.6863    -3.1626     5.4864 H       
  41 H41           -4.5915    -5.5620     3.7783 H       
  42 H42            1.1327     2.3707    -0.3392 H       
  43 H43           -2.6137     4.4311    -0.1314 H       
  44 H44           -2.9999     1.9043    -0.0826 H       
  45 H45            0.2860     5.4682    -1.3554 H       
  46 H46           -0.4012     5.9088     0.2264 H       
  47 H47            1.1645     5.0665     0.1397 H       
@<TRIPOS>BOND
   1    1    2 1
   2    1   22 2
   3    1   25 1
   4    2    3 2
   5    2    6 1
   6    3    4 1
   7    4    5 2
   8    4    7 1
   9    5    6 1
  10    7    8 1
  11    7   12 1
  12    7   28 1
  13    8    9 1
  14    8   29 1
  15    8   30 1
  16    9   10 1
  17    9   31 1
  18    9   32 1
  19   10   11 1
  20   10   13 1
  21   10   33 1
  22   11   12 1
  23   11   14 am
  24   12   34 1
  25   12   35 1
  26   13   36 1
  27   13   37 1
  28   13   38 1
  29   14   15 1
  30   14   21 2
  31   15   16 ar
  32   15   20 ar
  33   16   17 ar
  34   16   39 1
  35   17   18 ar
  36   17   40 1
  37   18   19 ar
  38   18   27 1
  39   19   20 ar
  40   20   41 1
  41   22   23 1
  42   22   42 1
  43   23   24 2
  44   23   26 1
  45   24   25 1
  46   24   43 1
  47   25   44 1
  48   26   45 1
  49   26   46 1
  50   26   47 1

#	End of record

