#	Name: ASD02500217
#	Creating user name:	WinNT
#	Creation time:	15. 06. 2019 20:22

#	Modifying user name:	WinNT
#	Modification time:	15. 06. 2019 20:22

#	Program:	/corina/corina34_cracker 3.40 0067  02.08.2006

@<TRIPOS>MOLECULE
ASD02500217
  59   63    0    0    0
SMALL
NO_CHARGES


@<TRIPOS>ATOM
   1 N1            -1.6509     5.5371    -0.7997 N.ar    
   2 C2            -2.6910     6.3169    -0.9679 C.ar    
   3 C3            -3.7574     6.3205    -0.0711 C.ar    
   4 C4            -3.7355     5.4959     1.0174 C.ar    
   5 C5            -2.6170     4.6595     1.1946 C.ar    
   6 C6            -2.5236     3.7858     2.2895 C.ar    
   7 C7            -1.4249     2.9929     2.4258 C.ar    
   8 C8            -0.3912     3.0372     1.4929 C.ar    
   9 C9            -0.4490     3.8724     0.4197 C.ar    
  10 C10           -1.5667     4.7064     0.2444 C.ar    
  11 S11            0.8729     3.9087    -0.7448 S.o2    
  12 O12            1.2289     5.2750    -0.9052 O.2     
  13 O13            1.7953     2.9080    -0.3361 O.2     
  14 N14            0.2581     3.4118    -2.1999 N.am    
  15 C15           -0.1644     2.0957    -2.3640 C.ar    
  16 C16           -0.0259     1.4698    -3.6021 C.ar    
  17 C17           -0.4433     0.1673    -3.7666 C.ar    
  18 C18           -1.0060    -0.5257    -2.6902 C.ar    
  19 C19           -1.1429     0.1055    -1.4510 C.ar    
  20 C20           -0.7186     1.4057    -1.2909 C.ar    
  21 C21           -1.4547    -1.9204    -2.8626 C.2     
  22 O22           -1.2119    -2.7476    -2.0050 O.2     
  23 N23           -2.1337    -2.2778    -3.9706 N.am    
  24 C24           -2.6696    -3.6388    -4.1130 C.3     
  25 C25           -4.1750    -3.5461    -4.3911 C.3     
  26 N26           -4.3932    -2.5816    -5.4784 N.am    
  27 C27           -3.8572    -1.2206    -5.3360 C.3     
  28 C28           -2.3566    -1.3117    -5.0554 C.3     
  29 C29           -5.0722    -2.9390    -6.5864 C.2     
  30 C30           -5.3760    -1.9311    -7.6244 C.ar    
  31 C31           -5.6637    -0.6076    -7.2691 C.ar    
  32 C32           -5.9409     0.2969    -8.2787 C.ar    
  33 C33           -5.9251    -0.1310    -9.5943 C.ar    
  34 N34           -5.6509    -1.3848    -9.8995 N.ar    
  35 C35           -5.3751    -2.2813    -8.9750 C.ar    
  36 O36           -5.4348    -4.0900    -6.7322 O.2     
  37 F37            0.5175     2.1410    -4.6410 F       
  38 H38           -2.7221     6.9743    -1.8242 H       
  39 H39           -4.6004     6.9751    -0.2364 H       
  40 H40           -4.5532     5.4861     1.7228 H       
  41 H41           -3.3182     3.7431     3.0196 H       
  42 H42           -1.3539     2.3211     3.2684 H       
  43 H43            0.4701     2.3989     1.6235 H       
  44 H44            0.1924     4.0378    -2.9379 H       
  45 H45           -0.3366    -0.3177    -4.7256 H       
  46 H46           -1.5771    -0.4276    -0.6182 H       
  47 H47           -0.8202     1.8917    -0.3318 H       
  48 H48           -2.1745    -4.1419    -4.9435 H       
  49 H49           -2.5015    -4.1964    -3.1916 H       
  50 H50           -4.5530    -4.5242    -4.6885 H       
  51 H51           -4.6928    -3.2085    -3.4933 H       
  52 H52           -4.0253    -0.6630    -6.2573 H       
  53 H53           -4.3524    -0.7175    -4.5054 H       
  54 H54           -1.9819    -0.3328    -4.7562 H       
  55 H55           -1.8387    -1.6453    -5.9546 H       
  56 H56           -5.6695    -0.3008    -6.2336 H       
  57 H57           -6.1676     1.3260    -8.0423 H       
  58 H58           -6.1411     0.5729   -10.3844 H       
  59 H59           -5.1510    -3.2974    -9.2644 H       
@<TRIPOS>BOND
   1    1    2 ar
   2    1   10 ar
   3    2    3 ar
   4    2   38 1
   5    3    4 ar
   6    3   39 1
   7    4    5 ar
   8    4   40 1
   9    5    6 ar
  10    5   10 ar
  11    6    7 ar
  12    6   41 1
  13    7    8 ar
  14    7   42 1
  15    8    9 ar
  16    8   43 1
  17    9   10 ar
  18    9   11 1
  19   11   12 2
  20   11   13 2
  21   11   14 am
  22   14   15 1
  23   14   44 1
  24   15   16 ar
  25   15   20 ar
  26   16   17 ar
  27   16   37 1
  28   17   18 ar
  29   17   45 1
  30   18   19 ar
  31   18   21 1
  32   19   20 ar
  33   19   46 1
  34   20   47 1
  35   21   22 2
  36   21   23 am
  37   23   24 1
  38   23   28 1
  39   24   25 1
  40   24   48 1
  41   24   49 1
  42   25   26 1
  43   25   50 1
  44   25   51 1
  45   26   27 1
  46   26   29 am
  47   27   28 1
  48   27   52 1
  49   27   53 1
  50   28   54 1
  51   28   55 1
  52   29   30 1
  53   29   36 2
  54   30   31 ar
  55   30   35 ar
  56   31   32 ar
  57   31   56 1
  58   32   33 ar
  59   32   57 1
  60   33   34 ar
  61   33   58 1
  62   34   35 ar
  63   35   59 1

#	End of record

