#	Name: ASD05170057
#	Creating user name:	WinNT
#	Creation time:	15. 06. 2019 20:57

#	Modifying user name:	WinNT
#	Modification time:	15. 06. 2019 20:57

#	Program:	/corina/corina34_cracker 3.40 0067  02.08.2006

@<TRIPOS>MOLECULE
ASD05170057
  48   51    0    0    0
SMALL
NO_CHARGES


@<TRIPOS>ATOM
   1 C1            -0.2251     1.4603    -1.1238 C.ar    
   2 C2            -0.2364     0.0839    -1.2790 C.ar    
   3 C3             0.9376    -0.6359    -1.1519 C.ar    
   4 C4             2.1237     0.0150    -0.8697 C.ar    
   5 C5             2.1419     1.3889    -0.7136 C.ar    
   6 C6             0.9696     2.1159    -0.8400 C.ar    
   7 O7             0.9858     3.4671    -0.6872 O.3     
   8 C8             2.2476     4.0721    -0.3971 C.3     
   9 C9             2.0709     5.5627    -0.2629 C.2     
  10 C10            0.8650     6.2648    -0.3923 C.2     
  11 N11            3.0186     6.4317     0.0014 N.2     
  12 C12            1.1947     7.5753    -0.1934 C.2     
  13 C13            0.3801     8.7999    -0.1946 C.2     
  14 N14            2.5484     7.6160     0.0587 N.pl3   
  15 C15            3.2281     8.8832     0.3535 C.3     
  16 C16            2.5057    10.0216    -0.3656 C.3     
  17 N17            1.0579     9.9731    -0.1752 N.am    
  18 O18           -0.8356     8.7616    -0.2126 O.2     
  19 C19            0.3561    11.1650     0.0373 C.ar    
  20 C20           -0.9257    12.5915     1.4772 C.ar    
  21 C21           -0.2339    11.4144     1.2695 C.ar    
  22 C22            0.2535    12.1027    -0.9819 C.ar    
  23 C23           -0.4392    13.2785    -0.7700 C.ar    
  24 C24           -1.0308    13.5230     0.4580 C.ar    
  25 F25           -1.7080    14.6739     0.6632 F       
  26 C26            3.2056     9.1362     1.8623 C.3     
  27 O27           -1.3777     2.1703    -1.2540 O.3     
  28 C28           -2.5644     1.4318    -1.5515 C.3     
  29 H29           -1.1620    -0.4272    -1.4989 H       
  30 H30            0.9275    -1.7090    -1.2732 H       
  31 H31            3.0383    -0.5507    -0.7705 H       
  32 H32            3.0700     1.8950    -0.4927 H       
  33 H33            2.6387     3.6671     0.5362 H       
  34 H34            2.9465     3.8604    -1.2063 H       
  35 H35           -0.1129     5.8579    -0.6035 H       
  36 H36            4.2606     8.8314     0.0078 H       
  37 H37            2.8792    10.9722     0.0151 H       
  38 H38            2.7250     9.9604    -1.4315 H       
  39 H39           -1.3850    12.7857     2.4352 H       
  40 H40           -0.1521    10.6881     2.0646 H       
  41 H41            0.7154    11.9127    -1.9395 H       
  42 H42           -0.5192    14.0080    -1.5623 H       
  43 H43            3.7175     8.3218     2.3749 H       
  44 H44            3.7104    10.0772     2.0805 H       
  45 H45            2.1727     9.1897     2.2063 H       
  46 H46           -2.4368     0.9046    -2.4969 H       
  47 H47           -2.7527     0.7108    -0.7560 H       
  48 H48           -3.4088     2.1167    -1.6285 H       
@<TRIPOS>BOND
   1    1    2 ar
   2    1    6 ar
   3    1   27 1
   4    2    3 ar
   5    2   29 1
   6    3    4 ar
   7    3   30 1
   8    4    5 ar
   9    4   31 1
  10    5    6 ar
  11    5   32 1
  12    6    7 1
  13    7    8 1
  14    8    9 1
  15    8   33 1
  16    8   34 1
  17    9   11 2
  18    9   10 1
  19   10   12 2
  20   10   35 1
  21   11   14 1
  22   12   14 1
  23   12   13 1
  24   13   17 am
  25   13   18 2
  26   14   15 1
  27   15   16 1
  28   15   26 1
  29   15   36 1
  30   16   17 1
  31   16   37 1
  32   16   38 1
  33   17   19 1
  34   19   22 ar
  35   19   21 ar
  36   20   21 ar
  37   20   24 ar
  38   20   39 1
  39   21   40 1
  40   22   23 ar
  41   22   41 1
  42   23   24 ar
  43   23   42 1
  44   24   25 1
  45   26   43 1
  46   26   44 1
  47   26   45 1
  48   27   28 1
  49   28   46 1
  50   28   47 1
  51   28   48 1

#	End of record

