#	Name: ASD03331336
#	Creating user name:	WinNT
#	Creation time:	15. 06. 2019 20:39

#	Modifying user name:	WinNT
#	Modification time:	15. 06. 2019 20:39

#	Program:	/corina/corina34_cracker 3.40 0067  02.08.2006

@<TRIPOS>MOLECULE
ASD03331336
  56   58    0    0    0
SMALL
NO_CHARGES


@<TRIPOS>ATOM
   1 N1            -0.6776     0.9074     0.7048 N.am    
   2 N2            -0.6308    -0.2951     1.4259 N.2     
   3 C3             0.6319    -0.6391     1.5721 C.2     
   4 C4             1.4242     0.3386     0.9455 C.2     
   5 C5             2.9284     0.3839     0.8424 C.3     
   6 C6             3.3082     1.3809    -0.2593 C.3     
   7 C7             2.5601     2.6981    -0.0361 C.3     
   8 C8             1.0683     2.4947    -0.3276 C.3     
   9 C9             0.5983     1.2744     0.4240 C.2     
  10 C10           -1.7922     1.5763     0.3489 C.2     
  11 O11           -1.7043     2.6130    -0.2786 O.2     
  12 N12           -3.0044     1.0954     0.6893 N.am    
  13 O13            4.7165     1.6204    -0.2200 O.3     
  14 C14           -5.3322     1.4817     1.2557 C.2     
  15 C15           -4.2159     1.8225     0.3025 C.3     
  16 C16           -4.6188     1.4230    -1.1184 C.3     
  17 C17           -4.8167    -0.0927    -1.1853 C.3     
  18 O18           -5.3431     0.4068     1.8173 O.2     
  19 N19           -6.3185     2.3714     1.4842 N.am    
  20 C20           -7.4636     1.9975     2.3181 C.3     
  21 C21           -5.9252     2.1250    -1.4946 C.3     
  22 C22           -3.5174     1.8371    -2.0963 C.3     
  23 C23            1.1309    -1.8466     2.2752 C.ar    
  24 C24            2.2322    -1.7555     3.1245 C.ar    
  25 C25            2.6929    -2.8824     3.7773 C.ar    
  26 C26            2.0604    -4.1030     3.5873 C.ar    
  27 C27            0.9664    -4.1961     2.7437 C.ar    
  28 C28            0.4962    -3.0734     2.0927 C.ar    
  29 F29            2.5135    -5.2034     4.2269 F       
  30 F30            3.7603    -2.7963     4.6010 F       
  31 H31            3.3519     0.7083     1.7929 H       
  32 H32            3.3089    -0.6056     0.5891 H       
  33 H33            3.0368     0.9691    -1.2313 H       
  34 H34            2.6880     3.0178     0.9981 H       
  35 H35            2.9602     3.4608    -0.7042 H       
  36 H36            0.5071     3.3685     0.0037 H       
  37 H37            0.9201     2.3466    -1.3973 H       
  38 H38           -3.0746     0.2678     1.1903 H       
  39 H39            5.0284     2.2431    -0.8909 H       
  40 H40           -4.0229     2.8947     0.3375 H       
  41 H41           -5.6014    -0.3877    -0.4886 H       
  42 H42           -5.1037    -0.3773    -2.1975 H       
  43 H43           -3.8861    -0.5928    -0.9173 H       
  44 H44           -6.2702     3.2592     1.0966 H       
  45 H45           -8.1522     2.8395     2.3883 H       
  46 H46           -7.9758     1.1456     1.8710 H       
  47 H47           -7.1147     1.7293     3.3153 H       
  48 H48           -5.7829     3.2048    -1.4512 H       
  49 H49           -6.2145     1.8369    -2.5052 H       
  50 H50           -6.7088     1.8334    -0.7953 H       
  51 H51           -2.5867     1.3370    -1.8283 H       
  52 H52           -3.8044     1.5524    -3.1086 H       
  53 H53           -3.3764     2.9169    -2.0487 H       
  54 H54            2.7247    -0.8057     3.2716 H       
  55 H55            0.4774    -5.1480     2.5981 H       
  56 H56           -0.3599    -3.1469     1.4385 H       
@<TRIPOS>BOND
   1    1    2 1
   2    1    9 1
   3    1   10 am
   4    2    3 2
   5    3    4 1
   6    3   23 1
   7    4    5 1
   8    4    9 2
   9    5    6 1
  10    5   31 1
  11    5   32 1
  12    6    7 1
  13    6   13 1
  14    6   33 1
  15    7    8 1
  16    7   34 1
  17    7   35 1
  18    8    9 1
  19    8   36 1
  20    8   37 1
  21   10   11 2
  22   10   12 am
  23   12   15 1
  24   12   38 1
  25   13   39 1
  26   14   18 2
  27   14   19 am
  28   14   15 1
  29   15   16 1
  30   15   40 1
  31   16   17 1
  32   16   21 1
  33   16   22 1
  34   17   41 1
  35   17   42 1
  36   17   43 1
  37   19   20 1
  38   19   44 1
  39   20   45 1
  40   20   46 1
  41   20   47 1
  42   21   48 1
  43   21   49 1
  44   21   50 1
  45   22   51 1
  46   22   52 1
  47   22   53 1
  48   23   24 ar
  49   23   28 ar
  50   24   25 ar
  51   24   54 1
  52   25   26 ar
  53   25   30 1
  54   26   27 ar
  55   26   29 1
  56   27   28 ar
  57   27   55 1
  58   28   56 1

#	End of record

