#	Name: ASD00310144
#	Creating user name:	WinNT
#	Creation time:	15. 06. 2019 18:33

#	Modifying user name:	WinNT
#	Modification time:	15. 06. 2019 18:33

#	Program:	/corina/corina34_cracker 3.40 0067  02.08.2006

@<TRIPOS>MOLECULE
ASD00310144
  40   43    0    0    0
SMALL
NO_CHARGES


@<TRIPOS>ATOM
   1 N1            -0.0162     1.3425     0.0094 N.pl3   
   2 C2             0.0021    -0.0041     0.0020 C.2     
   3 C3             1.3065    -0.4496    -0.0128 C.2     
   4 C4             2.1541     0.7597    -0.0144 C.ar    
   5 C5             3.5276     0.9734    -0.0268 C.ar    
   6 C6             4.0198     2.2726    -0.0249 C.ar    
   7 C7             3.1346     3.3559    -0.0106 C.ar    
   8 C8             1.7745     3.1459     0.0016 C.ar    
   9 C9             1.2678     1.8487    -0.0001 C.ar    
  10 C10            1.7457    -1.7969    -0.0238 C.2     
  11 O11            0.9342    -2.6999    -0.0210 O.2     
  12 C12            5.4840     2.5112    -0.0376 C.ar    
  13 C13            6.0398     3.3935    -0.9625 C.ar    
  14 C14            7.4012     3.6136    -0.9715 C.ar    
  15 C15            8.2180     2.9572    -0.0608 C.ar    
  16 C16            7.6674     2.0776     0.8613 C.ar    
  17 C17            6.3059     1.8580     0.8792 C.ar    
  18 O18            9.5591     3.1757    -0.0724 O.3     
  19 C19           10.3402     2.4674     0.8921 C.3     
  20 O20           13.7046     1.9927     0.7451 O.3     
  21 C21           12.7474     2.2360     1.7841 C.3     
  22 C22           11.8150     2.8394     0.7265 C.3     
  23 C23           12.6133     1.8935    -0.1791 C.3     
  24 Cl24           3.7563     4.9767    -0.0078 Cl      
  25 H25           -0.8217     1.8829     0.0163 H       
  26 H26           -0.8721    -0.6383     0.0075 H       
  27 H27            4.2079     0.1347    -0.0374 H       
  28 H28            1.0990     3.9885     0.0129 H       
  29 H29            2.8022    -2.0203    -0.0348 H       
  30 H30            5.4050     3.9039    -1.6716 H       
  31 H31            7.8325     4.2971    -1.6879 H       
  32 H32            8.3054     1.5678     1.5681 H       
  33 H33            5.8776     1.1770     1.5998 H       
  34 H34           10.0085     2.7348     1.8954 H       
  35 H35           10.2169     1.3948     0.7425 H       
  36 H36           12.3571     1.3237     2.2353 H       
  37 H37           13.0873     2.9597     2.5249 H       
  38 H38           11.9773     3.8993     0.5310 H       
  39 H39           12.8358     2.3171    -1.1584 H       
  40 H40           12.1880     0.8917    -0.2406 H       
@<TRIPOS>BOND
   1    1    2 1
   2    1    9 1
   3    1   25 1
   4    2    3 2
   5    2   26 1
   6    3    4 1
   7    3   10 1
   8    4    5 ar
   9    4    9 ar
  10    5    6 ar
  11    5   27 1
  12    6    7 ar
  13    6   12 1
  14    7    8 ar
  15    7   24 1
  16    8    9 ar
  17    8   28 1
  18   10   11 2
  19   10   29 1
  20   12   13 ar
  21   12   17 ar
  22   13   14 ar
  23   13   30 1
  24   14   15 ar
  25   14   31 1
  26   15   16 ar
  27   15   18 1
  28   16   17 ar
  29   16   32 1
  30   17   33 1
  31   18   19 1
  32   19   22 1
  33   19   34 1
  34   19   35 1
  35   20   21 1
  36   20   23 1
  37   21   22 1
  38   21   36 1
  39   21   37 1
  40   22   23 1
  41   22   38 1
  42   23   39 1
  43   23   40 1

#	End of record

