#	Name: ASD03331419
#	Creating user name:	WinNT
#	Creation time:	15. 06. 2019 20:39

#	Modifying user name:	WinNT
#	Modification time:	15. 06. 2019 20:39

#	Program:	/corina/corina34_cracker 3.40 0067  02.08.2006

@<TRIPOS>MOLECULE
ASD03331419
  78   81    0    0    0
SMALL
NO_CHARGES


@<TRIPOS>ATOM
   1 N1            -0.6061     1.4719    -1.0013 N.am    
   2 C2             0.4107     2.1489    -1.8177 C.3     
   3 C3             0.2254     1.7335    -3.2805 C.3     
   4 C4             0.2535     0.2066    -3.3805 C.3     
   5 C5            -0.8981    -0.3812    -2.5618 C.3     
   6 C6            -0.7255     0.0102    -1.0908 C.3     
   7 C7             0.1055    -0.2049    -4.8227 C.2     
   8 O8            -0.4467     0.5336    -5.6104 O.2     
   9 N9             0.5868    -1.3936    -5.2370 N.am    
  10 C10           -1.4102     2.1777    -0.1818 C.2     
  11 O11           -2.3150     1.6207     0.4102 O.2     
  12 N12           -1.5575     5.7933     0.2462 N.pl3   
  13 C13           -2.1685     4.5938     0.0860 C.2     
  14 C14           -1.1934     3.6235    -0.0030 C.2     
  15 C15            0.0591     4.2813     0.1102 C.2     
  16 C16           -0.1952     5.6062     0.2615 C.2     
  17 C17           -3.6559     4.3614     0.0171 C.3     
  18 C18           -4.1197     4.4538    -1.4380 C.3     
  19 C19           -5.6297     4.2179    -1.5079 C.3     
  20 C20           -6.0935     4.3103    -2.9630 C.3     
  21 O21           -7.5039     4.0899    -3.0283 O.3     
  22 C22            0.8214     6.6689     0.4170 C.ar    
  23 C23            1.8598     6.5165     1.3387 C.ar    
  24 C24            2.8057     7.5121     1.4786 C.ar    
  25 C25            2.7261     8.6595     0.7075 C.ar    
  26 C26            1.6986     8.8157    -0.2072 C.ar    
  27 C27            0.7503     7.8252    -0.3603 C.ar    
  28 Cl28           3.9192     9.9074     0.8889 Cl      
  29 Cl29           1.9602     5.0787     2.3064 Cl      
  30 C30           -2.2097     7.0275     0.3704 C.ar    
  31 C31           -2.1906     7.7053     1.5821 C.ar    
  32 C32           -2.8338     8.9216     1.7018 C.ar    
  33 C33           -3.4968     9.4649     0.6154 C.ar    
  34 C34           -3.5177     8.7911    -0.5931 C.ar    
  35 C35           -2.8712     7.5772    -0.7195 C.ar    
  36 Cl36          -4.3043    10.9940     0.7691 Cl      
  37 N37            1.5315    -0.2946    -2.8575 N.3     
  38 C38            1.5457    -4.9734    -8.5095 C.3     
  39 C39            0.9192    -3.5924    -8.3063 C.3     
  40 C40            1.0695    -3.1746    -6.8422 C.3     
  41 C41            0.4429    -1.7937    -6.6390 C.3     
  42 F42            0.8983    -5.9044    -7.6902 F       
  43 F43            1.4083    -5.3554    -9.8483 F       
  44 F44            2.9034    -4.9232    -8.1759 F       
  45 H45            0.2928     3.2287    -1.7267 H       
  46 H46            1.4049     1.8579    -1.4784 H       
  47 H47           -0.7324     2.1044    -3.6455 H       
  48 H48            1.0316     2.1524    -3.8826 H       
  49 H49           -1.8453     0.0096    -2.9335 H       
  50 H50           -0.8916    -1.4674    -2.6524 H       
  51 H51            0.1760    -0.4551    -0.6922 H       
  52 H52           -1.5932    -0.3211    -0.5203 H       
  53 H53            1.0285    -1.9843    -4.6070 H       
  54 H54            1.0328     3.8149     0.0811 H       
  55 H55           -3.8875     3.3714     0.4101 H       
  56 H56           -4.1696     5.1174     0.6109 H       
  57 H57           -3.8880     5.4438    -1.8309 H       
  58 H58           -3.6059     3.6978    -2.0318 H       
  59 H59           -5.8614     3.2279    -1.1149 H       
  60 H60           -6.1435     4.9739    -0.9141 H       
  61 H61           -5.8619     5.3003    -3.3560 H       
  62 H62           -5.5798     3.5543    -3.5568 H       
  63 H63           -7.8679     4.1341    -3.9231 H       
  64 H64            3.6091     7.3961     2.1910 H       
  65 H65            1.6417     9.7131    -0.8054 H       
  66 H66           -0.0478     7.9466    -1.0777 H       
  67 H67           -1.6736     7.2815     2.4303 H       
  68 H68           -2.8195     9.4490     2.6442 H       
  69 H69           -4.0361     9.2170    -1.4395 H       
  70 H70           -2.8837     7.0541    -1.6643 H       
  71 H71            1.5749    -1.3012    -2.9126 H       
  72 H72            2.3103     0.1278    -3.3402 H       
  73 H73            1.4236    -2.8671    -8.9448 H       
  74 H74           -0.1386    -3.6316    -8.5663 H       
  75 H75            0.5650    -3.9000    -6.2038 H       
  76 H76            2.1273    -3.1355    -6.5823 H       
  77 H77           -0.6149    -1.8328    -6.8989 H       
  78 H78            0.9473    -1.0684    -7.2774 H       
@<TRIPOS>BOND
   1    1    2 1
   2    1    6 1
   3    1   10 am
   4    2    3 1
   5    2   45 1
   6    2   46 1
   7    3    4 1
   8    3   47 1
   9    3   48 1
  10    4    5 1
  11    4    7 1
  12    4   37 1
  13    5    6 1
  14    5   49 1
  15    5   50 1
  16    6   51 1
  17    6   52 1
  18    7    8 2
  19    7    9 am
  20    9   41 1
  21    9   53 1
  22   10   11 2
  23   10   14 1
  24   12   13 1
  25   12   16 1
  26   12   30 1
  27   13   14 2
  28   13   17 1
  29   14   15 1
  30   15   16 2
  31   15   54 1
  32   16   22 1
  33   17   18 1
  34   17   55 1
  35   17   56 1
  36   18   19 1
  37   18   57 1
  38   18   58 1
  39   19   20 1
  40   19   59 1
  41   19   60 1
  42   20   21 1
  43   20   61 1
  44   20   62 1
  45   21   63 1
  46   22   23 ar
  47   22   27 ar
  48   23   24 ar
  49   23   29 1
  50   24   25 ar
  51   24   64 1
  52   25   26 ar
  53   25   28 1
  54   26   27 ar
  55   26   65 1
  56   27   66 1
  57   30   31 ar
  58   30   35 ar
  59   31   32 ar
  60   31   67 1
  61   32   33 ar
  62   32   68 1
  63   33   34 ar
  64   33   36 1
  65   34   35 ar
  66   34   69 1
  67   35   70 1
  68   37   71 1
  69   37   72 1
  70   38   39 1
  71   38   42 1
  72   38   43 1
  73   38   44 1
  74   39   40 1
  75   39   73 1
  76   39   74 1
  77   40   41 1
  78   40   75 1
  79   40   76 1
  80   41   77 1
  81   41   78 1

#	End of record

