#	Name: ASD05430219
#	Creating user name:	WinNT
#	Creation time:	15. 06. 2019 21:00

#	Modifying user name:	WinNT
#	Modification time:	15. 06. 2019 21:00

#	Program:	/corina/corina34_cracker 3.40 0067  02.08.2006

@<TRIPOS>MOLECULE
ASD05430219
  75   82    0    0    0
SMALL
NO_CHARGES


@<TRIPOS>ATOM
   1 C1             0.1782     1.1698    -1.0372 C.ar    
   2 C2             0.0183    -0.0125    -0.3116 C.ar    
   3 C3             1.0455    -0.4802     0.4936 C.ar    
   4 C4             2.2374     0.2116     0.5904 C.ar    
   5 C5             2.4228     1.3948    -0.1242 C.ar    
   6 C6             1.3825     1.8798    -0.9468 C.ar    
   7 C7             4.9507    -0.0510    -0.0984 C.3     
   8 C8             4.8545     1.4584     0.0657 C.2     
   9 C9             3.6898     2.1308    -0.0217 C.2     
  10 C10            6.0911    -0.3686    -1.0674 C.3     
  11 C11            7.4343     0.1295    -0.5382 C.3     
  12 N12            7.3416     1.5009    -0.0621 N.pl3   
  13 C13            6.1488     2.1253     0.3300 C.2     
  14 N14           -1.1830    -0.7276    -0.3971 N.pl3   
  15 C15           -2.4355    -0.2231    -0.2478 C.2     
  16 C16           -1.3174    -2.0677    -0.6532 C.2     
  17 C17           -2.6370    -2.3358    -0.6465 C.2     
  18 N18           -3.2951    -1.1939    -0.3971 N.2     
  19 C19           -3.2660    -3.6848    -0.8821 C.3     
  20 N20            0.0568     3.0034    -2.3407 N.2     
  21 O21           -0.6211     1.8498    -1.8846 O.3     
  22 C22            8.3784     2.5083     0.1068 C.3     
  23 O23            7.7938     3.4831     0.9757 O.3     
  24 N24            6.3891     3.2528     0.9064 N.2     
  25 C25            9.6545     1.9482     0.6431 C.ar    
  26 C26           10.7081     2.5093    -0.0942 C.ar    
  27 N27           10.2329     3.3964    -1.0521 N.3     
  28 C28            8.7833     3.1365    -1.2380 C.3     
  29 C29            9.8801     1.0440     1.6625 C.ar    
  30 C30           11.2003     0.7021     1.9288 C.ar    
  31 C31           12.2454     1.2437     1.2046 C.ar    
  32 C32           12.0297     2.1562     0.1809 C.ar    
  33 C33           10.9617     3.2439    -2.3185 C.3     
  34 F34           13.5110     0.8753     1.5009 F       
  35 C35            1.2408     3.0522    -1.8093 C.2     
  36 C36            6.1647    -1.8858    -1.2738 C.3     
  37 C37            7.2975    -2.2094    -2.2494 C.3     
  38 C38            7.0250    -1.5307    -3.5933 C.3     
  39 C39            6.9370    -0.0169    -3.3914 C.3     
  40 C40            5.8038     0.3038    -2.4150 C.3     
  41 O41            8.0870    -1.8293    -4.5016 O.3     
  42 C42            7.6860    -1.8656    -5.8728 C.3     
  43 H43            0.9122    -1.3952     1.0516 H       
  44 H44            3.0283    -0.1651     1.2221 H       
  45 H45            5.1536    -0.5115     0.8685 H       
  46 H46            4.0128    -0.4355    -0.4992 H       
  47 H47            3.6880     3.2108    -0.0164 H       
  48 H48            7.7542    -0.5121     0.2828 H       
  49 H49            8.1735     0.0789    -1.3377 H       
  50 H50           -2.6791     0.8084    -0.0401 H       
  51 H51           -0.5182    -2.7730    -0.8274 H       
  52 H52           -3.3725    -4.2071     0.0686 H       
  53 H53           -4.2481    -3.5534    -1.3365 H       
  54 H54           -2.6324    -4.2696    -1.5490 H       
  55 H55            8.6180     2.4366    -2.0571 H       
  56 H56            8.2424     4.0674    -1.4083 H       
  57 H57            9.0642     0.6205     2.2294 H       
  58 H58           11.4145    -0.0020     2.7193 H       
  59 H59           12.8517     2.5755    -0.3802 H       
  60 H60           10.8370     2.2265    -2.6892 H       
  61 H61           10.5682     3.9484    -3.0512 H       
  62 H62           12.0206     3.4437    -2.1546 H       
  63 H63            1.9848     3.8173    -1.9753 H       
  64 H64            6.3567    -2.3741    -0.3184 H       
  65 H65            5.2195    -2.2436    -1.6823 H       
  66 H66            8.2413    -1.8453    -1.8435 H       
  67 H67            7.3562    -3.2883    -2.3927 H       
  68 H68            6.0835    -1.8982    -4.0015 H       
  69 H69            7.8799     0.3510    -2.9869 H       
  70 H70            6.7394     0.4662    -4.3483 H       
  71 H71            4.8617    -0.0710    -2.8151 H       
  72 H72            5.7373     1.3829    -2.2764 H       
  73 H73            6.9224    -2.6316    -6.0078 H       
  74 H74            7.2814    -0.8947    -6.1588 H       
  75 H75            8.5484    -2.0982    -6.4975 H       
@<TRIPOS>BOND
   1    1    2 ar
   2    1    6 ar
   3    1   21 1
   4    2    3 ar
   5    2   14 1
   6    3    4 ar
   7    3   43 1
   8    4    5 ar
   9    4   44 1
  10    5    6 ar
  11    5    9 1
  12    6   35 1
  13    7    8 1
  14    7   10 1
  15    7   45 1
  16    7   46 1
  17    8    9 2
  18    8   13 1
  19    9   47 1
  20   10   11 1
  21   10   36 1
  22   10   40 1
  23   11   12 1
  24   11   48 1
  25   11   49 1
  26   12   13 1
  27   12   22 1
  28   13   24 2
  29   14   15 1
  30   14   16 1
  31   15   18 2
  32   15   50 1
  33   16   17 2
  34   16   51 1
  35   17   18 1
  36   17   19 1
  37   19   52 1
  38   19   53 1
  39   19   54 1
  40   20   21 1
  41   20   35 2
  42   22   23 1
  43   22   25 1
  44   22   28 1
  45   23   24 1
  46   25   26 ar
  47   25   29 ar
  48   26   27 1
  49   26   32 ar
  50   27   28 1
  51   27   33 1
  52   28   55 1
  53   28   56 1
  54   29   30 ar
  55   29   57 1
  56   30   31 ar
  57   30   58 1
  58   31   32 ar
  59   31   34 1
  60   32   59 1
  61   33   60 1
  62   33   61 1
  63   33   62 1
  64   35   63 1
  65   36   37 1
  66   36   64 1
  67   36   65 1
  68   37   38 1
  69   37   66 1
  70   37   67 1
  71   38   39 1
  72   38   41 1
  73   38   68 1
  74   39   40 1
  75   39   69 1
  76   39   70 1
  77   40   71 1
  78   40   72 1
  79   41   42 1
  80   42   73 1
  81   42   74 1
  82   42   75 1

#	End of record

