#	Name: ASD04590123
#	Creating user name:	WinNT
#	Creation time:	15. 06. 2019 20:50

#	Modifying user name:	WinNT
#	Modification time:	15. 06. 2019 20:50

#	Program:	/corina/corina34_cracker 3.40 0067  02.08.2006

@<TRIPOS>MOLECULE
ASD04590123
  46   49    0    0    0
SMALL
NO_CHARGES


@<TRIPOS>ATOM
   1 N1            -0.0153     1.2802     0.0091 N.pl3   
   2 N2             0.0021    -0.0041     0.0020 N.2     
   3 C3             1.2455    -0.4440    -0.0122 C.2     
   4 C4             2.0903     0.6961    -0.0142 C.2     
   5 C5             1.2523     1.7667    -0.0004 C.2     
   6 C6             1.6765    -1.8547    -0.0239 C.2     
   7 N7             0.7571    -2.8402    -0.0209 N.am    
   8 O8             2.8611    -2.1284    -0.0362 O.2     
   9 N9             3.4930     0.7146    -0.0268 N.am    
  10 C10            4.1514     1.8906    -0.0268 C.2     
  11 C11            6.3408     1.9134     1.1629 C.ar    
  12 C12            5.6264     1.9101    -0.0401 C.ar    
  13 C13            1.1851    -4.2412    -0.0325 C.3     
  14 C14            0.0771    -5.1121    -0.6380 C.3     
  15 C15            0.5355    -6.5757    -0.6110 C.3     
  16 C16            0.8206    -6.9779     0.8388 C.3     
  17 N17            0.5627    -5.8321     1.7218 N.3     
  18 C18            1.4526    -4.7080     1.4013 C.3     
  19 C19            7.7227     1.9312     1.1412 C.ar    
  20 C20            8.3993     1.9459    -0.0650 C.ar    
  21 C21            7.7010     1.9428    -1.2589 C.ar    
  22 C22            6.3189     1.9250    -1.2557 C.ar    
  23 F23            5.6818     1.9046     2.3422 F       
  24 F24            5.6388     1.9216    -2.4230 F       
  25 O25            3.5296     2.9356    -0.0160 O.2     
  26 C26           -0.8475    -5.4244     1.6561 C.3     
  27 C27           -1.1805    -4.9772     0.2299 C.3     
  28 H28           -0.8184     1.8242     0.0160 H       
  29 H29            1.5405     2.8076     0.0021 H       
  30 H30           -0.1880    -2.6218    -0.0111 H       
  31 H31            3.9890    -0.1189    -0.0354 H       
  32 H32            2.0935    -4.3407    -0.6266 H       
  33 H33           -0.1257    -4.8017    -1.6630 H       
  34 H34           -0.2499    -7.2120    -1.0188 H       
  35 H35            1.4425    -6.6853    -1.2055 H       
  36 H36            0.1718    -7.8073     1.1204 H       
  37 H37            1.8628    -7.2827     0.9334 H       
  38 H38            2.4904    -5.0286     1.4917 H       
  39 H39            1.2640    -3.8864     2.0923 H       
  40 H40            8.2758     1.9341     2.0688 H       
  41 H41            9.4791     1.9601    -0.0747 H       
  42 H42            8.2372     1.9546    -2.1963 H       
  43 H43           -1.4827    -6.2665     1.9308 H       
  44 H44           -1.0197    -4.5982     2.3459 H       
  45 H45           -1.5073    -3.9374     0.2402 H       
  46 H46           -1.9728    -5.6070    -0.1747 H       
@<TRIPOS>BOND
   1    1    2 1
   2    1    5 1
   3    1   28 1
   4    2    3 2
   5    3    4 1
   6    3    6 1
   7    4    5 2
   8    4    9 1
   9    5   29 1
  10    6    7 am
  11    6    8 2
  12    7   13 1
  13    7   30 1
  14    9   10 am
  15    9   31 1
  16   10   25 2
  17   10   12 1
  18   11   12 ar
  19   11   19 ar
  20   11   23 1
  21   12   22 ar
  22   13   14 1
  23   13   18 1
  24   13   32 1
  25   14   15 1
  26   14   27 1
  27   14   33 1
  28   15   16 1
  29   15   34 1
  30   15   35 1
  31   16   17 1
  32   16   36 1
  33   16   37 1
  34   17   18 1
  35   17   26 1
  36   18   38 1
  37   18   39 1
  38   19   20 ar
  39   19   40 1
  40   20   21 ar
  41   20   41 1
  42   21   22 ar
  43   21   42 1
  44   22   24 1
  45   26   27 1
  46   26   43 1
  47   26   44 1
  48   27   45 1
  49   27   46 1

#	End of record

