#	Name: ASD05143124
#	Creating user name:	WinNT
#	Creation time:	15. 06. 2019 20:57

#	Modifying user name:	WinNT
#	Modification time:	15. 06. 2019 20:57

#	Program:	/corina/corina34_cracker 3.40 0067  02.08.2006

@<TRIPOS>MOLECULE
ASD05143124
 147  150    0    0    0
SMALL
NO_CHARGES


@<TRIPOS>ATOM
   1 C1            -0.7649     2.1973    -7.2520 C.2     
   2 C2            -0.7707     1.1104    -8.2959 C.3     
   3 N3             0.3987     2.5970    -6.7018 N.am    
   4 O4            -1.8068     2.7158    -6.9106 O.2     
   5 C5             0.4044     3.6536    -5.6870 C.3     
   6 C6            -0.1827     4.9352    -6.2818 C.3     
   7 C7            -0.4267     3.2210    -4.5067 C.2     
   8 C8             0.7298     5.4430    -7.4000 C.3     
   9 C9             0.1427     6.7246    -7.9948 C.3     
  10 N10            1.0164     7.2109    -9.0655 N.pl3   
  11 C11            0.6907     8.3572    -9.7512 C.2     
  12 N12            1.5106     8.8136   -10.7561 N.pl3   
  13 N13           -0.3954     9.0112    -9.4487 N.2     
  14 O14           -1.2487     2.3384    -4.6347 O.2     
  15 N15           -0.2566     3.8148    -3.3088 N.am    
  16 C16           -1.0646     3.3942    -2.1614 C.3     
  17 C17           -0.3165     3.7150    -0.8660 C.3     
  18 C18            0.8521     2.7418    -0.6978 C.3     
  19 C19            2.0614     3.4896    -0.1328 C.3     
  20 N20            2.1430     3.2269     1.3222 N.am    
  21 C21            2.5895     4.2715     2.0813 C.2     
  22 C22            2.9488     5.5641     1.3949 C.3     
  23 C23            4.0348     6.2831     2.1976 C.3     
  24 C24            3.3858     7.0960     3.3196 C.3     
  25 N25            3.1643     8.4757     2.8427 N.am    
  26 C26            4.2968     7.1169     4.5198 C.2     
  27 N27            4.3351     6.0600     5.3553 N.am    
  28 O28            4.9955     8.0848     4.7340 O.2     
  29 C29            2.2365     9.2107     3.5152 C.2     
  30 O30            1.6360     8.7322     4.4540 O.2     
  31 C31            1.9663    10.6272     3.0775 C.3     
  32 N32            0.5025    10.8504     3.0756 N.am    
  33 C33            2.6331    11.6015     4.0507 C.3     
  34 C34           -0.0390    11.1686     1.8624 C.2     
  35 O35            0.6622    11.2546     0.8766 O.2     
  36 C36           -1.5237    11.4104     1.7712 C.3     
  37 N37           -1.9961    10.9763     0.4412 N.am    
  38 C38           -2.2417    10.6073     2.8576 C.3     
  39 C39           -3.1641    10.2781     0.4083 C.2     
  40 O40           -3.7705    10.0463     1.4327 O.2     
  41 C41           -3.6938     9.7973    -0.9183 C.3     
  42 C42            2.4657    13.0109     3.5442 C.2     
  43 C43            1.3110    13.8848     3.7649 C.ar    
  44 C44            1.6064    15.0928     3.1074 C.ar    
  45 N45            2.8502    14.9498     2.5345 N.pl3   
  46 C46            3.3490    13.7057     2.8100 C.2     
  47 C47            0.0991    13.7389     4.4429 C.ar    
  48 C48           -0.7948    14.7719     4.4642 C.ar    
  49 C49           -0.5082    15.9660     3.8165 C.ar    
  50 C50            0.6817    16.1316     3.1424 C.ar    
  51 N51           -3.9455     8.3409    -0.8254 N.am    
  52 C52           -2.6615    10.0716    -2.0137 C.3     
  53 C53           -1.2749     9.9902    -1.4289 C.ar    
  54 C54           -0.8664     8.8419    -0.7746 C.ar    
  55 C55            0.4071     8.7677    -0.2384 C.ar    
  56 C56            1.2699     9.8407    -0.3568 C.ar    
  57 C57            0.8610    10.9881    -1.0109 C.ar    
  58 C58           -0.4091    11.0608    -1.5513 C.ar    
  59 C59           -2.3803     4.1287    -2.1775 C.2     
  60 O60           -3.4008     3.5545    -2.4932 O.2     
  61 C61           -1.9990     9.1136     2.6320 C.3     
  62 C62           -2.6158     8.3170     3.7835 C.3     
  63 N63           -2.3835     6.8868     3.5675 N.pl3   
  64 C64           -2.8503     5.9692     4.4787 C.2     
  65 N65           -2.6323     4.6270     4.2760 N.pl3   
  66 N66           -3.4997     6.3718     5.5347 N.2     
  67 N67           -2.4080     5.4451    -1.8324 N.am    
  68 C68           -3.7253     6.1110    -1.8729 C.3     
  69 C69           -3.5154     7.6033    -1.8920 C.2     
  70 O70           -2.9748     8.1393    -2.8361 O.2     
  71 C71           -4.5345     5.7229    -0.6338 C.3     
  72 C72           -5.9667     6.2416    -0.7767 C.3     
  73 C73           -6.7953     5.7557     0.3845 C.2     
  74 O74           -6.2900     5.0626     1.2420 O.2     
  75 N75           -8.0978     6.0912     0.4701 N.am    
  76 Cl76          -1.9511     7.4947    -0.6257 Cl      
  77 O77            2.6950     4.1606     3.2844 O.2     
  78 H78           -0.8777     0.1406    -7.8100 H       
  79 H79           -1.6046     1.2681    -8.9799 H       
  80 H80            0.1659     1.1365    -8.8527 H       
  81 H81            1.2324     2.1851    -6.9777 H       
  82 H82            1.4280     3.8396    -5.3619 H       
  83 H83           -1.1729     4.7272    -6.6872 H       
  84 H84           -0.2608     5.6944    -5.5036 H       
  85 H85            1.7200     5.6510    -6.9947 H       
  86 H86            0.8078     4.6839    -8.1782 H       
  87 H87           -0.8475     6.5166    -8.4002 H       
  88 H88            0.0646     7.4838    -7.2166 H       
  89 H89            1.8246     6.7242    -9.2907 H       
  90 H90            2.3189     8.3268   -10.9812 H       
  91 H91            1.2808     9.6223   -11.2398 H       
  92 H92           -0.6252     9.8200    -9.9325 H       
  93 H93            0.4007     4.5207    -3.2064 H       
  94 H94           -1.2470     2.3211    -2.2194 H       
  95 H95            0.0639     4.7356    -0.9093 H       
  96 H96           -0.9963     3.6162    -0.0198 H       
  97 H97            0.5651     1.9446    -0.0121 H       
  98 H98            1.1100     2.3129    -1.6661 H       
  99 H99            2.9703     3.1362    -0.6198 H       
 100 H100           1.9433     4.5594    -0.3053 H       
 101 H101           1.8962     2.3725     1.7096 H       
 102 H102           3.3188     5.3522     0.3917 H       
 103 H103           2.0651     6.1988     1.3296 H       
 104 H104           4.7150     5.5481     2.6282 H       
 105 H105           4.5908     6.9510     1.5398 H       
 106 H106           2.4310     6.6459     3.5914 H       
 107 H107           3.6548     8.8398     2.0892 H       
 108 H108           3.7763     5.2859     5.1840 H       
 109 H109           4.9215     6.0734     6.1278 H       
 110 H110           2.3613    10.7815     2.0733 H       
 111 H111          -0.0346    10.7762     3.8799 H       
 112 H112           2.1675    11.5104     5.0321 H       
 113 H113           3.6947    11.3672     4.1291 H       
 114 H114          -1.7296    12.4726     1.9032 H       
 115 H115          -1.4998    11.1785    -0.3673 H       
 116 H116          -1.8564    10.8943     3.8360 H       
 117 H117          -3.3113    10.8122     2.8139 H       
 118 H118          -4.6243    10.3155    -1.1504 H       
 119 H119           3.3065    15.6308     2.0160 H       
 120 H120           4.3079    13.3350     2.4791 H       
 121 H121          -0.1309    12.8127     4.9485 H       
 122 H122          -1.7320    14.6586     4.9888 H       
 123 H123          -1.2250    16.7734     3.8419 H       
 124 H124           0.8955    17.0644     2.6419 H       
 125 H125          -4.3850     7.9384    -0.0601 H       
 126 H126          -2.7660     9.3298    -2.8054 H       
 127 H127          -2.8243    11.0677    -2.4253 H       
 128 H128           0.7265     7.8716     0.2729 H       
 129 H129           2.2638     9.7830     0.0620 H       
 130 H130           1.5356    11.8265    -1.1029 H       
 131 H131          -0.7278    11.9572    -2.0625 H       
 132 H132          -2.4589     8.8087     1.6920 H       
 133 H133          -0.9268     8.9218     2.5910 H       
 134 H134          -2.1560     8.6220     4.7236 H       
 135 H135          -3.6881     8.5088     3.8246 H       
 136 H136          -1.9002     6.5872     2.7816 H       
 137 H137          -2.1490     4.3274     3.4901 H       
 138 H138          -2.9617     3.9796     4.9188 H       
 139 H139          -3.8291     5.7244     6.1776 H       
 140 H140          -1.6038     5.9213    -1.5728 H       
 141 H141          -4.2613     5.8061    -2.7718 H       
 142 H142          -4.5493     4.6375    -0.5349 H       
 143 H143          -4.0756     6.1621     0.2520 H       
 144 H144          -5.9590     7.3316    -0.7867 H       
 145 H145          -6.3954     5.8728    -1.7085 H       
 146 H146          -8.5019     6.6455    -0.2157 H       
 147 H147          -8.6311     5.7784     1.2175 H       
@<TRIPOS>BOND
   1    1    2 1
   2    1    3 am
   3    1    4 2
   4    2   78 1
   5    2   79 1
   6    2   80 1
   7    3    5 1
   8    3   81 1
   9    5    6 1
  10    5    7 1
  11    5   82 1
  12    6    8 1
  13    6   83 1
  14    6   84 1
  15    7   14 2
  16    7   15 am
  17    8    9 1
  18    8   85 1
  19    8   86 1
  20    9   10 1
  21    9   87 1
  22    9   88 1
  23   10   11 1
  24   10   89 1
  25   11   12 1
  26   11   13 2
  27   12   90 1
  28   12   91 1
  29   13   92 1
  30   15   16 1
  31   15   93 1
  32   16   17 1
  33   16   59 1
  34   16   94 1
  35   17   18 1
  36   17   95 1
  37   17   96 1
  38   18   19 1
  39   18   97 1
  40   18   98 1
  41   19   20 1
  42   19   99 1
  43   19  100 1
  44   20   21 am
  45   20  101 1
  46   21   22 1
  47   21   77 2
  48   22   23 1
  49   22  102 1
  50   22  103 1
  51   23   24 1
  52   23  104 1
  53   23  105 1
  54   24   25 1
  55   24   26 1
  56   24  106 1
  57   25   29 am
  58   25  107 1
  59   26   27 am
  60   26   28 2
  61   27  108 1
  62   27  109 1
  63   29   30 2
  64   29   31 1
  65   31   32 1
  66   31   33 1
  67   31  110 1
  68   32   34 am
  69   32  111 1
  70   33   42 1
  71   33  112 1
  72   33  113 1
  73   34   35 2
  74   34   36 1
  75   36   37 1
  76   36   38 1
  77   36  114 1
  78   37   39 am
  79   37  115 1
  80   38   61 1
  81   38  116 1
  82   38  117 1
  83   39   40 2
  84   39   41 1
  85   41   51 1
  86   41   52 1
  87   41  118 1
  88   42   43 1
  89   42   46 2
  90   43   44 ar
  91   43   47 ar
  92   44   45 1
  93   44   50 ar
  94   45   46 1
  95   45  119 1
  96   46  120 1
  97   47   48 ar
  98   47  121 1
  99   48   49 ar
 100   48  122 1
 101   49   50 ar
 102   49  123 1
 103   50  124 1
 104   51   69 am
 105   51  125 1
 106   52   53 1
 107   52  126 1
 108   52  127 1
 109   53   54 ar
 110   53   58 ar
 111   54   55 ar
 112   54   76 1
 113   55   56 ar
 114   55  128 1
 115   56   57 ar
 116   56  129 1
 117   57   58 ar
 118   57  130 1
 119   58  131 1
 120   59   60 2
 121   59   67 am
 122   61   62 1
 123   61  132 1
 124   61  133 1
 125   62   63 1
 126   62  134 1
 127   62  135 1
 128   63   64 1
 129   63  136 1
 130   64   65 1
 131   64   66 2
 132   65  137 1
 133   65  138 1
 134   66  139 1
 135   67   68 1
 136   67  140 1
 137   68   69 1
 138   68   71 1
 139   68  141 1
 140   69   70 2
 141   71   72 1
 142   71  142 1
 143   71  143 1
 144   72   73 1
 145   72  144 1
 146   72  145 1
 147   73   74 2
 148   73   75 am
 149   75  146 1
 150   75  147 1

#	End of record

