#	Name: ASD07300412
#	Creating user name:	WinNT
#	Creation time:	15. 06. 2019 21:09

#	Modifying user name:	WinNT
#	Modification time:	15. 06. 2019 21:09

#	Program:	/corina/corina34_cracker 3.40 0067  02.08.2006

@<TRIPOS>MOLECULE
ASD07300412
  44   48    0    0    0
SMALL
NO_CHARGES


@<TRIPOS>ATOM
   1 C1            -0.8612     0.9891    -0.1293 C.ar    
   2 C2            -1.0246    -0.3816    -0.3524 C.ar    
   3 C3             0.0605    -1.2305    -0.1925 C.ar    
   4 C4             1.2755    -0.6781     0.1861 C.ar    
   5 C5             1.3652     0.6860     0.3898 C.ar    
   6 N6             0.3171     1.4708     0.2303 N.ar    
   7 C7            -2.9752     0.6165    -0.7000 C.2     
   8 N8            -2.0995     1.5790    -0.3558 N.am    
   9 N9            -2.3544    -0.5785    -0.7122 N.am    
  10 O10           -4.1488     0.7991    -0.9642 O.2     
  11 C11           -2.3879     2.9473    -0.2443 C.ar    
  12 C12           -3.6720     3.4093    -0.4992 C.ar    
  13 C13           -3.9555     4.7561    -0.3889 C.ar    
  14 C14           -2.9572     5.6477    -0.0234 C.ar    
  15 C15           -1.6736     5.1865     0.2309 C.ar    
  16 C16           -1.3906     3.8391     0.1264 C.ar    
  17 O17           -3.2368     6.9738     0.0851 O.3     
  18 C18           -4.9933     8.6893     2.6116 C.ar    
  19 C19           -4.9099     7.3783     3.1139 C.ar    
  20 C20           -5.4831     7.0912     4.3556 C.ar    
  21 C21           -6.1105     8.1176     5.0379 C.ar    
  22 C22           -6.1524     9.3839     4.4786 C.ar    
  23 N23           -5.6054     9.6339     3.3060 N.ar    
  24 C24           -3.9127     7.3929     1.1793 C.2     
  25 N25           -4.3541     8.6677     1.3872 N.pl3   
  26 N26           -4.2355     6.6379     2.1972 N.2     
  27 C27           -2.9742    -1.8650    -1.0394 C.3     
  28 C28           -3.5380    -2.4981     0.2343 C.3     
  29 H29           -0.0379    -2.2932    -0.3580 H       
  30 H30            2.1426    -1.3078     0.3207 H       
  31 H31            2.3105     1.1171     0.6846 H       
  32 H32           -4.4490     2.7154    -0.7840 H       
  33 H33           -4.9543     5.1157    -0.5874 H       
  34 H34           -0.8967     5.8810     0.5147 H       
  35 H35           -0.3925     3.4796     0.3291 H       
  36 H36           -5.4377     6.0953     4.7708 H       
  37 H37           -6.5650     7.9328     6.0000 H       
  38 H38           -6.6435    10.1828     5.0143 H       
  39 H39           -4.2399     9.4201     0.7857 H       
  40 H40           -3.7813    -1.7079    -1.7550 H       
  41 H41           -2.2267    -2.5282    -1.4746 H       
  42 H42           -2.7310    -2.6551     0.9499 H       
  43 H43           -4.2856    -1.8349     0.6695 H       
  44 H44           -3.9992    -3.4553    -0.0091 H       
@<TRIPOS>BOND
   1    1    2 ar
   2    1    6 ar
   3    1    8 1
   4    2    3 ar
   5    2    9 1
   6    3    4 ar
   7    3   29 1
   8    4    5 ar
   9    4   30 1
  10    5    6 ar
  11    5   31 1
  12    7    8 am
  13    7    9 am
  14    7   10 2
  15    8   11 1
  16    9   27 1
  17   11   12 ar
  18   11   16 ar
  19   12   13 ar
  20   12   32 1
  21   13   14 ar
  22   13   33 1
  23   14   15 ar
  24   14   17 1
  25   15   16 ar
  26   15   34 1
  27   16   35 1
  28   17   24 1
  29   18   19 ar
  30   18   23 ar
  31   18   25 1
  32   19   20 ar
  33   19   26 1
  34   20   21 ar
  35   20   36 1
  36   21   22 ar
  37   21   37 1
  38   22   23 ar
  39   22   38 1
  40   24   25 1
  41   24   26 2
  42   25   39 1
  43   27   28 1
  44   27   40 1
  45   27   41 1
  46   28   42 1
  47   28   43 1
  48   28   44 1

#	End of record

