#	Name: ASD02500158
#	Creating user name:	WinNT
#	Creation time:	15. 06. 2019 20:22

#	Modifying user name:	WinNT
#	Modification time:	15. 06. 2019 20:22

#	Program:	/corina/corina34_cracker 3.40 0067  02.08.2006

@<TRIPOS>MOLECULE
ASD02500158
  62   66    0    0    0
SMALL
NO_CHARGES


@<TRIPOS>ATOM
   1 N1            -1.5551     0.2979     0.5668 N.am    
   2 C2            -1.1771    -0.5650    -0.5612 C.3     
   3 C3            -0.1220     0.1631    -1.4031 C.3     
   4 N4             0.9318     0.6606    -0.5077 N.am    
   5 C5             0.5538     1.5235     0.6202 C.3     
   6 C6            -0.5013     0.7954     1.4622 C.3     
   7 C7            -2.8445     0.6316     0.7731 C.2     
   8 O8            -3.1550     1.2818     1.7525 O.2     
   9 N9            -3.7898     0.2445    -0.1062 N.am    
  10 C10            2.2218     0.3311    -0.7170 C.2     
  11 C11            3.2789     0.9139     0.1310 C.ar    
  12 C12            4.3989     0.1521     0.4769 C.ar    
  13 C13            5.3832     0.6986     1.2681 C.ar    
  14 C14            5.2646     2.0086     1.7240 C.ar    
  15 C15            4.1503     2.7697     1.3817 C.ar    
  16 C16            3.1655     2.2310     0.5856 C.ar    
  17 O17            2.5143    -0.4467    -1.6048 O.2     
  18 S18            6.8662     4.0600     2.1770 S.o2    
  19 O19            5.7442     4.9144     2.0033 O.2     
  20 O20            7.8923     4.3083     3.1283 O.2     
  21 N21            6.2610     2.5580     2.5234 N.am    
  22 N22            9.4025     2.5951     1.5098 N.ar    
  23 C23           10.5133     1.9106     1.3838 C.ar    
  24 C24           11.1727     1.8015     0.1613 C.ar    
  25 C25           10.6623     2.4171    -0.9458 C.ar    
  26 C26            9.4690     3.1510    -0.8069 C.ar    
  27 C27            8.8851     3.8110    -1.8997 C.ar    
  28 C28            7.7303     4.5111    -1.7244 C.ar    
  29 C29            7.1194     4.5807    -0.4742 C.ar    
  30 C30            7.6586     3.9537     0.6068 C.ar    
  31 C31            8.8501     3.2215     0.4660 C.ar    
  32 C32           -5.1315     0.5756     0.1175 C.ar    
  33 C33           -6.1377    -0.2991    -0.2706 C.ar    
  34 C34           -7.4606     0.0297    -0.0483 C.ar    
  35 C35           -7.7837     1.2299     0.5601 C.ar    
  36 C36           -6.7828     2.1033     0.9478 C.ar    
  37 C37           -5.4582     1.7767     0.7330 C.ar    
  38 Cl38          -9.4475     1.6406     0.8370 Cl      
  39 H39           -0.7625    -1.4998    -0.1837 H       
  40 H40           -2.0547    -0.7720    -1.1735 H       
  41 H41            0.3093    -0.5283    -2.1270 H       
  42 H42           -0.5847     1.0010    -1.9246 H       
  43 H43            1.4314     1.7306     1.2326 H       
  44 H44            0.1393     2.4583     0.2428 H       
  45 H45           -0.9326     1.4869     2.1861 H       
  46 H46           -0.0386    -0.0425     1.9837 H       
  47 H47           -3.5404    -0.2634    -0.8941 H       
  48 H48            4.4913    -0.8644     0.1239 H       
  49 H49            6.2485     0.1105     1.5360 H       
  50 H50            4.0608     3.7855     1.7374 H       
  51 H51            2.3038     2.8235     0.3161 H       
  52 H52            6.6016     2.0614     3.2838 H       
  53 H53           10.9286     1.4184     2.2508 H       
  54 H54           12.0868     1.2308     0.0892 H       
  55 H55           11.1604     2.3433    -1.9012 H       
  56 H56            9.3492     3.7641    -2.8738 H       
  57 H57            7.2818     5.0186    -2.5656 H       
  58 H58            6.2043     5.1430    -0.3607 H       
  59 H59           -5.8861    -1.2355    -0.7461 H       
  60 H60           -8.2435    -0.6503    -0.3500 H       
  61 H61           -7.0376     3.0393     1.4225 H       
  62 H62           -4.6773     2.4568     1.0395 H       
@<TRIPOS>BOND
   1    1    2 1
   2    1    6 1
   3    1    7 am
   4    2    3 1
   5    2   39 1
   6    2   40 1
   7    3    4 1
   8    3   41 1
   9    3   42 1
  10    4    5 1
  11    4   10 am
  12    5    6 1
  13    5   43 1
  14    5   44 1
  15    6   45 1
  16    6   46 1
  17    7    8 2
  18    7    9 am
  19    9   32 1
  20    9   47 1
  21   10   11 1
  22   10   17 2
  23   11   12 ar
  24   11   16 ar
  25   12   13 ar
  26   12   48 1
  27   13   14 ar
  28   13   49 1
  29   14   15 ar
  30   14   21 1
  31   15   16 ar
  32   15   50 1
  33   16   51 1
  34   18   19 2
  35   18   20 2
  36   18   21 am
  37   18   30 1
  38   21   52 1
  39   22   23 ar
  40   22   31 ar
  41   23   24 ar
  42   23   53 1
  43   24   25 ar
  44   24   54 1
  45   25   26 ar
  46   25   55 1
  47   26   27 ar
  48   26   31 ar
  49   27   28 ar
  50   27   56 1
  51   28   29 ar
  52   28   57 1
  53   29   30 ar
  54   29   58 1
  55   30   31 ar
  56   32   33 ar
  57   32   37 ar
  58   33   34 ar
  59   33   59 1
  60   34   35 ar
  61   34   60 1
  62   35   36 ar
  63   35   38 1
  64   36   37 ar
  65   36   61 1
  66   37   62 1

#	End of record

