#	Name: ASD02039258
#	Creating user name:	WinNT
#	Creation time:	15. 06. 2019 20:17

#	Modifying user name:	WinNT
#	Modification time:	15. 06. 2019 20:17

#	Program:	/corina/corina34_cracker 3.40 0067  02.08.2006

@<TRIPOS>MOLECULE
ASD02039258
  40   43    0    0    0
SMALL
NO_CHARGES


@<TRIPOS>ATOM
   1 N1            -0.0160     1.3036    -0.0271 N.2     
   2 C2             0.0020    -0.0039     0.0002 C.2     
   3 C3             1.3717    -0.3811     0.0203 C.2     
   4 C4             2.0347     0.7972     0.0018 C.2     
   5 O5             1.1031     1.7614    -0.0265 O.3     
   6 N6            -1.0994    -0.8549     0.0087 N.pl3   
   7 C7            -0.9164    -2.2357    -0.1052 C.ar    
   8 C8             0.1059    -2.7392    -0.9002 C.ar    
   9 C9             0.2854    -4.1039    -1.0111 C.ar    
  10 C10           -0.5509    -4.9707    -0.3320 C.ar    
  11 C11           -1.5713    -4.4734     0.4616 C.ar    
  12 C12           -1.7524    -3.1070     0.5804 C.ar    
  13 O13            4.0139     1.0222    -1.3327 O.3     
  14 C14            5.3526     1.1905    -1.5024 C.ar    
  15 C15            6.1810     1.3213    -0.3894 C.ar    
  16 C16            7.5279     1.4911    -0.5373 C.ar    
  17 C17            8.0897     1.5359    -1.8104 C.ar    
  18 C18            7.2613     1.4047    -2.9414 C.ar    
  19 C19            5.8835     1.2251    -2.7747 C.ar    
  20 C20            3.5294     0.9894     0.0113 C.3     
  21 C21           -0.3521    -6.4594    -0.4560 C.3     
  22 F22           -2.3868    -5.3228     1.1238 F       
  23 N23            9.3712     1.6904    -2.2761 N.pl3   
  24 N24            9.3560     1.6579    -3.6743 N.2     
  25 C25            8.1380     1.4919    -4.1048 C.2     
  26 H26            1.7870    -1.3777     0.0451 H       
  27 H27           -1.9939    -0.4895     0.0936 H       
  28 H28            0.7597    -2.0634    -1.4315 H       
  29 H29            1.0799    -4.4947    -1.6294 H       
  30 H30           -2.5477    -2.7187     1.1994 H       
  31 H31            5.7529     1.2884     0.6015 H       
  32 H32            8.1579     1.5912     0.3342 H       
  33 H33            5.2397     1.1235    -3.6359 H       
  34 H34            3.7717     1.9290     0.5079 H       
  35 H35            3.9985     0.1639     0.5466 H       
  36 H36            0.3323    -6.8005     0.3208 H       
  37 H37           -1.3112    -6.9647    -0.3426 H       
  38 H38            0.0664    -6.6897    -1.4357 H       
  39 H39           10.1608     1.8040    -1.7243 H       
  40 H40            7.8315     1.4294    -5.1385 H       
@<TRIPOS>BOND
   1    1    2 2
   2    1    5 1
   3    2    3 1
   4    2    6 1
   5    3    4 2
   6    3   26 1
   7    4    5 1
   8    4   20 1
   9    6    7 1
  10    6   27 1
  11    7    8 ar
  12    7   12 ar
  13    8    9 ar
  14    8   28 1
  15    9   10 ar
  16    9   29 1
  17   10   11 ar
  18   10   21 1
  19   11   12 ar
  20   11   22 1
  21   12   30 1
  22   13   14 1
  23   13   20 1
  24   14   15 ar
  25   14   19 ar
  26   15   16 ar
  27   15   31 1
  28   16   17 ar
  29   16   32 1
  30   17   18 ar
  31   17   23 1
  32   18   19 ar
  33   18   25 1
  34   19   33 1
  35   20   34 1
  36   20   35 1
  37   21   36 1
  38   21   37 1
  39   21   38 1
  40   23   24 1
  41   23   39 1
  42   24   25 2
  43   25   40 1

#	End of record

