#	Name: ASD02508426
#	Creating user name:	WinNT
#	Creation time:	15. 06. 2019 20:24

#	Modifying user name:	WinNT
#	Modification time:	15. 06. 2019 20:24

#	Program:	/corina/corina34_cracker 3.40 0067  02.08.2006

@<TRIPOS>MOLECULE
ASD02508426
  44   46    0    0    0
SMALL
NO_CHARGES


@<TRIPOS>ATOM
   1 N1            -0.2081     1.6923     0.3027 N.2     
   2 C2            -0.1688     0.3586     0.4411 C.2     
   3 C3             1.1199    -0.0296     0.4135 C.2     
   4 N4             1.8732     1.1055     0.2540 N.pl3   
   5 C5             1.0080     2.1517     0.1898 C.2     
   6 C6             3.2679     1.1736     0.1731 C.ar    
   7 C7             3.9610     2.0760     0.9724 C.ar    
   8 N8             3.9158     0.3751    -0.6590 N.ar    
   9 C9             5.2302     0.4062    -0.7662 C.ar    
  10 C10            5.9825     1.2809    -0.0070 C.ar    
  11 C11            5.3420     2.1324     0.8824 C.ar    
  12 S12            1.7232    -1.6790     0.5551 S.o2    
  13 O13            1.6722    -2.2384    -0.7501 O.2     
  14 O14            2.9165    -1.6053     1.3230 O.2     
  15 N15            0.6306    -2.5238     1.4689 N.am    
  16 C16            0.3813    -2.1423     2.7891 C.ar    
  17 C17           -0.9236    -2.0799     3.2595 C.ar    
  18 C18           -1.1702    -1.7010     4.5701 C.ar    
  19 C19           -0.1138    -1.3843     5.4113 C.ar    
  20 C20            1.1899    -1.4464     4.9422 C.ar    
  21 C21            1.4386    -1.8306     3.6335 C.ar    
  22 Cl22           3.1072     3.1178     2.0675 Cl      
  23 C23            7.4835     1.3062    -0.1385 C.3     
  24 F24            7.8846     0.3591    -1.0868 F       
  25 F25            7.8943     2.5792    -0.5483 F       
  26 F26            8.0651     1.0039     1.0974 F       
  27 O27           -2.4472    -1.6394     5.0306 O.3     
  28 C28           -2.6278    -1.2416     6.3912 C.3     
  29 O29            2.2242    -1.1355     5.7671 O.3     
  30 C30            1.8953    -0.7532     7.1041 C.3     
  31 H31           -1.0236    -0.2916     0.5553 H       
  32 H32            1.2812     3.1892     0.0655 H       
  33 H33            5.7245    -0.2613    -1.4564 H       
  34 H34            5.9072     2.8258     1.4876 H       
  35 H35            0.1637    -3.2836     1.0873 H       
  36 H36           -1.7463    -2.3260     2.6046 H       
  37 H37           -0.3066    -1.0889     6.4320 H       
  38 H38            2.4538    -1.8789     3.2684 H       
  39 H39           -3.6914    -1.2339     6.6294 H       
  40 H40           -2.1137    -1.9446     7.0466 H       
  41 H41           -2.2159    -0.2427     6.5354 H       
  42 H42            1.3641    -1.5687     7.5950 H       
  43 H43            2.8099    -0.5323     7.6542 H       
  44 H44            1.2609     0.1329     7.0830 H       
@<TRIPOS>BOND
   1    1    2 1
   2    1    5 2
   3    2    3 2
   4    2   31 1
   5    3    4 1
   6    3   12 1
   7    4    5 1
   8    4    6 1
   9    5   32 1
  10    6    7 ar
  11    6    8 ar
  12    7   22 1
  13    7   11 ar
  14    8    9 ar
  15    9   10 ar
  16    9   33 1
  17   10   11 ar
  18   10   23 1
  19   11   34 1
  20   12   13 2
  21   12   14 2
  22   12   15 am
  23   15   16 1
  24   15   35 1
  25   16   17 ar
  26   16   21 ar
  27   17   18 ar
  28   17   36 1
  29   18   19 ar
  30   18   27 1
  31   19   20 ar
  32   19   37 1
  33   20   21 ar
  34   20   29 1
  35   21   38 1
  36   23   24 1
  37   23   25 1
  38   23   26 1
  39   27   28 1
  40   28   39 1
  41   28   40 1
  42   28   41 1
  43   29   30 1
  44   30   42 1
  45   30   43 1
  46   30   44 1

#	End of record

