#	Name: ASD03081132
#	Creating user name:	WinNT
#	Creation time:	15. 06. 2019 20:27

#	Modifying user name:	WinNT
#	Modification time:	15. 06. 2019 20:27

#	Program:	/corina/corina34_cracker 3.40 0067  02.08.2006

@<TRIPOS>MOLECULE
ASD03081132
  25   27    0    0    0
SMALL
NO_CHARGES


@<TRIPOS>ATOM
   1 O1            -0.0144     1.2085     0.0087 O.3     
   2 N2             0.0021    -0.0041     0.0020 N.2     
   3 C3             1.2351    -0.4419    -0.0121 C.2     
   4 N4             2.0457     0.6371    -0.0141 N.2     
   5 C5             1.2409     1.6829    -0.0008 C.2     
   6 C6             2.3770     5.6815     0.0095 C.ar    
   7 N7             1.0928     5.3828     0.0202 N.ar    
   8 C8             0.6871     4.1250     0.0173 C.ar    
   9 C9             1.6450     3.1050     0.0026 C.ar    
  10 C10            2.9961     3.4690    -0.0083 C.ar    
  11 N11            3.3124     4.7522    -0.0044 N.ar    
  12 C12            1.6632    -1.8629    -0.0234 C.ar    
  13 C13            0.7102    -2.8796    -0.0198 C.ar    
  14 C14            1.1133    -4.2008    -0.0308 C.ar    
  15 C15            2.4652    -4.5148    -0.0454 C.ar    
  16 C16            3.4139    -3.5061    -0.0490 C.ar    
  17 C17            3.0188    -2.1837    -0.0434 C.ar    
  18 F18            2.8566    -5.8078    -0.0557 F       
  19 F19            0.1911    -5.1880    -0.0269 F       
  20 H20            2.6722     6.7203     0.0078 H       
  21 H21           -0.3666     3.8883     0.0264 H       
  22 H22            3.7679     2.7137    -0.0195 H       
  23 H23           -0.3417    -2.6351    -0.0081 H       
  24 H24            4.4649    -3.7546    -0.0601 H       
  25 H25            3.7600    -1.3982    -0.0504 H       
@<TRIPOS>BOND
   1    1    2 1
   2    1    5 1
   3    2    3 2
   4    3    4 1
   5    3   12 1
   6    4    5 2
   7    5    9 1
   8    6    7 ar
   9    6   11 ar
  10    6   20 1
  11    7    8 ar
  12    8    9 ar
  13    8   21 1
  14    9   10 ar
  15   10   11 ar
  16   10   22 1
  17   12   13 ar
  18   12   17 ar
  19   13   14 ar
  20   13   23 1
  21   14   15 ar
  22   14   19 1
  23   15   16 ar
  24   15   18 1
  25   16   17 ar
  26   16   24 1
  27   17   25 1

#	End of record

