#	Name: ASD05790070
#	Creating user name:	WinNT
#	Creation time:	15. 06. 2019 21:03

#	Modifying user name:	WinNT
#	Modification time:	15. 06. 2019 21:03

#	Program:	/corina/corina34_cracker 3.40 0067  02.08.2006

@<TRIPOS>MOLECULE
ASD05790070
  87   92    0    0    0
SMALL
NO_CHARGES


@<TRIPOS>ATOM
   1 C1             2.8478     1.1933    -1.1317 C.3     
   2 C2             3.1693    -0.2683    -1.3531 C.2     
   3 C3             3.8682    -0.6606    -2.6331 C.3     
   4 C4             5.1213     0.2092    -2.7967 C.3     
   5 C5             4.7164     1.6920    -2.7196 C.3     
   6 C6             4.1264     2.0078    -1.3497 C.3     
   7 C7             5.7481    -0.0933    -4.1609 C.3     
   8 C8             4.7655     0.2510    -5.2949 C.3     
   9 C9             4.4359     1.7253    -5.1770 C.3     
  10 C10            3.7139     1.9453    -3.8220 C.3     
  11 C11            3.3923     2.2640    -6.1638 C.3     
  12 C12            2.8305     3.5009    -5.4664 C.2     
  13 C13            3.1748     3.3622    -3.9772 C.3     
  14 C14            4.0774     2.6416    -7.4640 C.3     
  15 C15            3.1554     3.1753    -8.5052 C.3     
  16 C16            2.7727     4.6275    -8.3576 C.3     
  17 C17            1.6831     4.8236    -7.3182 C.3     
  18 C18            2.1517     4.4548    -5.9571 C.2     
  19 C19            2.2647     5.1647    -9.7234 C.3     
  20 C20            3.2444     6.3009   -10.0433 C.3     
  21 C21            4.4912     5.8331    -9.2416 C.3     
  22 O22            3.9380     5.4123    -8.0019 O.3     
  23 N23            3.6597     6.3908   -11.4389 N.3     
  24 C24            4.6633     7.4611   -11.5783 C.3     
  25 C25            5.8889     7.2231   -10.7011 C.3     
  26 C26            5.4790     6.9800    -9.2368 C.3     
  27 C27            5.9490     2.5673    -2.9551 C.3     
  28 C28            1.7178     5.4489    -4.9109 C.3     
  29 C29            6.8025     8.4484   -10.7706 C.3     
  30 C30            2.3368     4.0731   -10.7931 C.3     
  31 C31            2.5069     6.6325   -12.3168 C.3     
  32 O32            2.8752    -1.0994    -0.5278 O.2     
  33 C33            3.0006     6.9875   -13.7207 C.3     
  34 N34            1.8509     7.2286   -14.5962 N.am    
  35 C35            2.0454     7.5589   -15.8883 C.2     
  36 C36            0.8627     7.8068   -16.7888 C.3     
  37 O37            3.1721     7.6565   -16.3263 O.2     
  38 H38            2.0838     1.5126    -1.8406 H       
  39 H39            2.4884     1.3400    -0.1132 H       
  40 H40            4.1560    -1.7108    -2.5853 H       
  41 H41            3.1993    -0.5007    -3.4787 H       
  42 H42            5.8309    -0.0181    -2.0012 H       
  43 H43            3.8926     3.0709    -1.2926 H       
  44 H44            4.8521     1.7562    -0.5763 H       
  45 H45            6.6554     0.4990    -4.2791 H       
  46 H46            6.0012    -1.1522    -4.2135 H       
  47 H47            5.2296     0.0512    -6.2607 H       
  48 H48            3.8565    -0.3413    -5.1900 H       
  49 H49            5.3488     2.3194    -5.2196 H       
  50 H50            2.8826     1.2462    -3.7307 H       
  51 H51            2.6059     1.5277    -6.3301 H       
  52 H52            2.2804     3.4952    -3.3684 H       
  53 H53            3.9363     4.0895    -3.6958 H       
  54 H54            4.8340     3.3968    -7.2508 H       
  55 H55            4.5765     1.7583    -7.8624 H       
  56 H56            3.6278     3.0442    -9.4788 H       
  57 H57            2.2432     2.5789    -8.4912 H       
  58 H58            1.3762     5.8696    -7.3175 H       
  59 H59            0.8260     4.2030    -7.5797 H       
  60 H60            1.2474     5.5453    -9.6324 H       
  61 H61            2.8716     7.2562    -9.6737 H       
  62 H62            4.9471     4.9804    -9.7446 H       
  63 H63            4.9795     7.5155   -12.6200 H       
  64 H64            4.2079     8.4111   -11.2990 H       
  65 H65            6.4303     6.3523   -11.0708 H       
  66 H66            5.0089     7.8746    -8.8284 H       
  67 H67            6.3546     6.7147    -8.6442 H       
  68 H68            6.4426     2.2593    -3.8769 H       
  69 H69            5.6436     3.6104    -3.0376 H       
  70 H70            6.6390     2.4558    -2.1187 H       
  71 H71            1.1405     6.2441    -5.3826 H       
  72 H72            1.1019     4.9461    -4.1652 H       
  73 H73            2.5970     5.8755    -4.4282 H       
  74 H74            6.2620     9.3253   -10.4141 H       
  75 H75            7.6799     8.2834   -10.1454 H       
  76 H76            7.1164     8.6096   -11.8020 H       
  77 H77            1.9155     3.1488   -10.3978 H       
  78 H78            1.7693     4.3854   -11.6697 H       
  79 H79            3.3769     3.9075   -11.0737 H       
  80 H80            1.8918     5.7339   -12.3644 H       
  81 H81            1.9150     7.4575   -11.9203 H       
  82 H82            3.6157     7.8861   -13.6732 H       
  83 H83            3.5925     6.1626   -14.1172 H       
  84 H84            0.9498     7.1505   -14.2459 H       
  85 H85            0.5910     8.8617   -16.7496 H       
  86 H86            1.1224     7.5363   -17.8123 H       
  87 H87            0.0194     7.2018   -16.4560 H       
@<TRIPOS>BOND
   1    1    2 1
   2    1    6 1
   3    1   38 1
   4    1   39 1
   5    2    3 1
   6    2   32 2
   7    3    4 1
   8    3   40 1
   9    3   41 1
  10    4    5 1
  11    4    7 1
  12    4   42 1
  13    5    6 1
  14    5   27 1
  15    5   10 1
  16    6   43 1
  17    6   44 1
  18    7    8 1
  19    7   45 1
  20    7   46 1
  21    8    9 1
  22    8   47 1
  23    8   48 1
  24    9   10 1
  25    9   11 1
  26    9   49 1
  27   10   13 1
  28   10   50 1
  29   11   12 1
  30   11   14 1
  31   11   51 1
  32   12   13 1
  33   12   18 2
  34   13   52 1
  35   13   53 1
  36   14   15 1
  37   14   54 1
  38   14   55 1
  39   15   16 1
  40   15   56 1
  41   15   57 1
  42   16   17 1
  43   16   22 1
  44   16   19 1
  45   17   18 1
  46   17   58 1
  47   17   59 1
  48   18   28 1
  49   19   30 1
  50   19   20 1
  51   19   60 1
  52   20   21 1
  53   20   23 1
  54   20   61 1
  55   21   22 1
  56   21   26 1
  57   21   62 1
  58   23   24 1
  59   23   31 1
  60   24   25 1
  61   24   63 1
  62   24   64 1
  63   25   26 1
  64   25   29 1
  65   25   65 1
  66   26   66 1
  67   26   67 1
  68   27   68 1
  69   27   69 1
  70   27   70 1
  71   28   71 1
  72   28   72 1
  73   28   73 1
  74   29   74 1
  75   29   75 1
  76   29   76 1
  77   30   77 1
  78   30   78 1
  79   30   79 1
  80   31   33 1
  81   31   80 1
  82   31   81 1
  83   33   34 1
  84   33   82 1
  85   33   83 1
  86   34   35 am
  87   34   84 1
  88   35   36 1
  89   35   37 2
  90   36   85 1
  91   36   86 1
  92   36   87 1

#	End of record

