#	Name: ASD01880397
#	Creating user name:	WinNT
#	Creation time:	15. 06. 2019 19:40

#	Modifying user name:	WinNT
#	Modification time:	15. 06. 2019 19:40

#	Program:	/corina/corina34_cracker 3.40 0067  02.08.2006

@<TRIPOS>MOLECULE
ASD01880397
  42   44    0    0    0
SMALL
NO_CHARGES


@<TRIPOS>ATOM
   1 C1            -0.0159     1.3213     0.0093 C.ar    
   2 N2             0.0021    -0.0041     0.0020 N.ar    
   3 C3            -1.1220    -0.7042     0.0094 C.ar    
   4 C4            -2.3622    -0.0155     0.0254 C.ar    
   5 C5            -2.3279     1.3811     0.0326 C.ar    
   6 N6            -1.1425     2.0049     0.0292 N.ar    
   7 C7            -3.7211    -0.5257     0.0354 C.2     
   8 C8            -4.6595     0.4001     0.0491 C.2     
   9 S9            -3.9684     2.0116     0.0513 S.3     
  10 C10           -6.1383     0.1102     0.0614 C.3     
  11 C11           -6.6253     0.0044     1.5080 C.3     
  12 C12           -8.1267    -0.2899     1.5204 C.3     
  13 N13           -1.0874    -2.0867     0.0012 N.pl3   
  14 C14            0.1992    -2.7872    -0.0158 C.3     
  15 C15           -0.0390    -4.2752    -0.0219 C.ar    
  16 O16            1.1603     1.9940     0.0017 O.3     
  17 C17            1.0914     3.4213     0.0100 C.3     
  18 C18           -0.1603    -4.9499    -1.2226 C.ar    
  19 C19           -0.3787    -6.3139    -1.2309 C.ar    
  20 C20           -0.4763    -7.0068    -0.0330 C.ar    
  21 C21           -0.3544    -6.3276     1.1705 C.ar    
  22 C22           -0.1304    -4.9644     1.1733 C.ar    
  23 O23           -0.6916    -8.3487    -0.0384 O.3     
  24 H24           -3.9460    -1.5820     0.0315 H       
  25 H25           -6.6708     0.9164    -0.4432 H       
  26 H26           -6.3285    -0.8303    -0.4557 H       
  27 H27           -6.0928    -0.8019     2.0125 H       
  28 H28           -6.4351     0.9448     2.0251 H       
  29 H29           -8.4736    -0.3654     2.5510 H       
  30 H30           -8.6592     0.5163     1.0159 H       
  31 H31           -8.3169    -1.2304     1.0033 H       
  32 H32           -1.9150    -2.5926     0.0067 H       
  33 H33            0.7549    -2.5046    -0.9099 H       
  34 H34            0.7730    -2.5147     0.8700 H       
  35 H35            2.1003     3.8338     0.0026 H       
  36 H36            0.5522     3.7642    -0.8730 H       
  37 H37            0.5692     3.7547     0.9068 H       
  38 H38           -0.0845    -4.4100    -2.1549 H       
  39 H39           -0.4737    -6.8404    -2.1691 H       
  40 H40           -0.4300    -6.8648     2.1044 H       
  41 H41           -0.0353    -4.4352     2.1099 H       
  42 H42            0.1183    -8.8769    -0.0498 H       
@<TRIPOS>BOND
   1    1    2 ar
   2    1   16 1
   3    1    6 ar
   4    2    3 ar
   5    3    4 ar
   6    3   13 1
   7    4    5 ar
   8    4    7 1
   9    5    6 ar
  10    5    9 1
  11    7    8 2
  12    7   24 1
  13    8    9 1
  14    8   10 1
  15   10   11 1
  16   10   25 1
  17   10   26 1
  18   11   12 1
  19   11   27 1
  20   11   28 1
  21   12   29 1
  22   12   30 1
  23   12   31 1
  24   13   14 1
  25   13   32 1
  26   14   15 1
  27   14   33 1
  28   14   34 1
  29   15   18 ar
  30   15   22 ar
  31   16   17 1
  32   17   35 1
  33   17   36 1
  34   17   37 1
  35   18   19 ar
  36   18   38 1
  37   19   20 ar
  38   19   39 1
  39   20   21 ar
  40   20   23 1
  41   21   22 ar
  42   21   40 1
  43   22   41 1
  44   23   42 1

#	End of record

