#	Name: ASD03740008
#	Creating user name:	WinNT
#	Creation time:	15. 06. 2019 20:46

#	Modifying user name:	WinNT
#	Modification time:	15. 06. 2019 20:46

#	Program:	/corina/corina34_cracker 3.40 0067  02.08.2006

@<TRIPOS>MOLECULE
ASD03740008
  41   43    0    0    0
SMALL
NO_CHARGES


@<TRIPOS>ATOM
   1 C1            -0.0167     1.3784     0.0096 C.ar    
   2 C2             0.0021    -0.0041     0.0020 C.ar    
   3 C3            -1.1841    -0.7122     0.0095 C.ar    
   4 C4            -2.3948    -0.0349     0.0247 C.ar    
   5 C5            -2.4109     1.3523     0.0323 C.ar    
   6 C6            -1.2219     2.0557     0.0305 C.ar    
   7 S7             1.4980     2.2786    -0.0000 S.o2    
   8 O8            -3.5630    -0.7292     0.0317 O.3     
   9 C9            -4.7711     0.0339     0.0474 C.3     
  10 N10            1.9043     2.5376    -1.5844 N.am    
  11 O11            1.2097     3.5550     0.5541 O.2     
  12 O12            2.4865     1.4064     0.5303 O.2     
  13 C13            1.5393     3.6065    -2.3385 C.2     
  14 C14            2.0765     3.4375    -3.5777 C.2     
  15 C15            2.7884     2.2300    -3.5753 C.2     
  16 N16            2.6900     1.6958    -2.3818 N.2     
  17 N17            0.7577     4.6796    -1.9203 N.pl3   
  18 O18            3.4693     1.7051    -4.6288 O.3     
  19 C19            4.0935     0.5282    -4.4284 C.2     
  20 C20            4.8523    -0.1016    -5.5274 C.ar    
  21 O21            4.0321    -0.0150    -3.3434 O.2     
  22 C22            5.5009    -1.3222    -5.3232 C.ar    
  23 C23            6.2082    -1.9052    -6.3562 C.ar    
  24 C24            6.2750    -1.2835    -7.5897 C.ar    
  25 C25            5.6346    -0.0742    -7.7984 C.ar    
  26 C26            4.9202     0.5171    -6.7778 C.ar    
  27 Br27           5.4111    -2.1732    -3.6369 Br      
  28 H28            0.9448    -0.5308    -0.0102 H       
  29 H29           -1.1689    -1.7920     0.0032 H       
  30 H30           -3.3521     1.8818     0.0442 H       
  31 H31           -1.2339     3.1356     0.0364 H       
  32 H32           -5.6271    -0.6410     0.0515 H       
  33 H33           -4.7955     0.6572     0.9412 H       
  34 H34           -4.8122     0.6674    -0.8387 H       
  35 H35            1.9722     4.1129    -4.4139 H       
  36 H36            0.4197     4.7084    -1.0116 H       
  37 H37            0.5511     5.3988    -2.5376 H       
  38 H38            6.7106    -2.8484    -6.2002 H       
  39 H39            6.8298    -1.7436    -8.3940 H       
  40 H40            5.6914     0.4057    -8.7642 H       
  41 H41            4.4210     1.4605    -6.9426 H       
@<TRIPOS>BOND
   1    1    2 ar
   2    1    7 1
   3    1    6 ar
   4    2    3 ar
   5    2   28 1
   6    3    4 ar
   7    3   29 1
   8    4    5 ar
   9    4    8 1
  10    5    6 ar
  11    5   30 1
  12    6   31 1
  13    7   10 am
  14    7   11 2
  15    7   12 2
  16    8    9 1
  17    9   32 1
  18    9   33 1
  19    9   34 1
  20   10   13 1
  21   10   16 1
  22   13   14 2
  23   13   17 1
  24   14   15 1
  25   14   35 1
  26   15   16 2
  27   15   18 1
  28   17   36 1
  29   17   37 1
  30   18   19 1
  31   19   20 1
  32   19   21 2
  33   20   22 ar
  34   20   26 ar
  35   22   23 ar
  36   22   27 1
  37   23   24 ar
  38   23   38 1
  39   24   25 ar
  40   24   39 1
  41   25   26 ar
  42   25   40 1
  43   26   41 1

#	End of record

