#	Name: ASD01150852
#	Creating user name:	WinNT
#	Creation time:	15. 06. 2019 19:05

#	Modifying user name:	WinNT
#	Modification time:	15. 06. 2019 19:05

#	Program:	/corina/corina34_cracker 3.40 0067  02.08.2006

@<TRIPOS>MOLECULE
ASD01150852
  58   60    0    0    0
SMALL
NO_CHARGES


@<TRIPOS>ATOM
   1 C1            -0.0184     1.5028     0.0103 C.3     
   2 C2             0.0021    -0.0041     0.0020 C.ar    
   3 C3             1.3954     2.0244    -0.0004 C.2     
   4 N4             1.6237     3.3527     0.0046 N.am    
   5 O5             2.3278     1.2489    -0.0135 O.2     
   6 C6             2.9287     3.8341    -0.0053 C.2     
   7 N7             4.0402     3.0947    -0.0204 N.2     
   8 C8             5.1013     3.8755    -0.0266 C.2     
   9 N9             4.7042     5.1741    -0.0156 N.pl3   
  10 C10            3.3084     5.1702    -0.0074 C.2     
  11 S11            6.7739     3.3216    -0.0453 S.3     
  12 C12            6.5118     1.5307    -0.0525 C.3     
  13 C13            5.5739     6.3530    -0.0174 C.3     
  14 C14            2.4572     6.2938     0.0052 C.2     
  15 O15            2.9818     7.5383     0.0103 O.3     
  16 O16            1.2489     6.1423     0.0113 O.2     
  17 C17            2.0605     8.6306     0.0231 C.3     
  18 C18            2.8344     9.9504     0.0273 C.3     
  19 C19            5.8580     6.7654    -1.4387 C.ar    
  20 C20            5.0251     7.6653    -2.0769 C.ar    
  21 C21            5.2857     8.0437    -3.3807 C.ar    
  22 C22            6.3795     7.5225    -4.0461 C.ar    
  23 C23            7.2130     6.6233    -3.4076 C.ar    
  24 C24            6.9548     6.2483    -2.1024 C.ar    
  25 C25           -0.7584     2.0096    -1.2292 C.3     
  26 C26           -2.2263     1.5845    -1.1562 C.3     
  27 C27           -0.5771    -0.7089     1.0406 C.ar    
  28 C28           -0.5584    -2.0911     1.0330 C.ar    
  29 C29            0.0392    -2.7685    -0.0134 C.ar    
  30 C30            0.6177    -2.0637    -1.0524 C.ar    
  31 C31            0.5951    -0.6815    -1.0470 C.ar    
  32 H32           -0.5286     1.8543     0.9071 H       
  33 H33            0.8780     3.9729     0.0150 H       
  34 H34            7.4760     1.0224    -0.0642 H       
  35 H35            5.9592     1.2408     0.8412 H       
  36 H36            5.9424     1.2503    -0.9386 H       
  37 H37            5.0786     7.1707     0.5062 H       
  38 H38            6.5108     6.1140     0.4858 H       
  39 H39            1.4282     8.5830    -0.8635 H       
  40 H40            1.4387     8.5711     0.9164 H       
  41 H41            3.4561    10.0099    -0.8660 H       
  42 H42            2.1316    10.7836     0.0370 H       
  43 H43            3.4666     9.9981     0.9139 H       
  44 H44            4.1705     8.0725    -1.5570 H       
  45 H45            4.6345     8.7462    -3.8795 H       
  46 H46            6.5827     7.8175    -5.0649 H       
  47 H47            8.0674     6.2158    -3.9276 H       
  48 H48            7.6060     5.5458    -1.6035 H       
  49 H49           -0.6966     3.0971    -1.2699 H       
  50 H50           -0.3015     1.5861    -2.1236 H       
  51 H51           -2.2880     0.4970    -1.1155 H       
  52 H52           -2.6832     2.0080    -0.2618 H       
  53 H53           -2.7535     1.9456    -2.0393 H       
  54 H54           -1.0440    -0.1797     1.8581 H       
  55 H55           -1.0103    -2.6417     1.8448 H       
  56 H56            0.0546    -3.8483    -0.0189 H       
  57 H57            1.0849    -2.5929    -1.8697 H       
  58 H58            1.0470    -0.1308    -1.8587 H       
@<TRIPOS>BOND
   1    1    2 1
   2    1    3 1
   3    1   25 1
   4    1   32 1
   5    2   27 ar
   6    2   31 ar
   7    3    4 am
   8    3    5 2
   9    4    6 1
  10    4   33 1
  11    6    7 1
  12    6   10 2
  13    7    8 2
  14    8    9 1
  15    8   11 1
  16    9   10 1
  17    9   13 1
  18   10   14 1
  19   11   12 1
  20   12   34 1
  21   12   35 1
  22   12   36 1
  23   13   19 1
  24   13   37 1
  25   13   38 1
  26   14   15 1
  27   14   16 2
  28   15   17 1
  29   17   18 1
  30   17   39 1
  31   17   40 1
  32   18   41 1
  33   18   42 1
  34   18   43 1
  35   19   20 ar
  36   19   24 ar
  37   20   21 ar
  38   20   44 1
  39   21   22 ar
  40   21   45 1
  41   22   23 ar
  42   22   46 1
  43   23   24 ar
  44   23   47 1
  45   24   48 1
  46   25   26 1
  47   25   49 1
  48   25   50 1
  49   26   51 1
  50   26   52 1
  51   26   53 1
  52   27   28 ar
  53   27   54 1
  54   28   29 ar
  55   28   55 1
  56   29   30 ar
  57   29   56 1
  58   30   31 ar
  59   30   57 1
  60   31   58 1

#	End of record

