#	Name: ASD04880403
#	Creating user name:	WinNT
#	Creation time:	15. 06. 2019 20:53

#	Modifying user name:	WinNT
#	Modification time:	15. 06. 2019 20:53

#	Program:	/corina/corina34_cracker 3.40 0067  02.08.2006

@<TRIPOS>MOLECULE
ASD04880403
  43   46    0    0    0
SMALL
NO_CHARGES


@<TRIPOS>ATOM
   1 C1            -0.0143     1.3817     0.0535 C.ar    
   2 C2             0.0028     0.0001    -0.0071 C.ar    
   3 C3             1.2041    -0.6781    -0.0363 C.ar    
   4 C4             2.4051     0.0323    -0.0050 C.ar    
   5 C5             2.3833     1.4268     0.0557 C.ar    
   6 C6             1.1740     2.0944     0.0849 C.ar    
   7 C7             3.6948    -0.6889    -0.0356 C.2     
   8 O8             3.7146    -1.9026     0.0377 O.2     
   9 N9             4.8490    -0.0015    -0.1447 N.am    
  10 C10            6.2001    -0.5796    -0.0686 C.3     
  11 N11            4.9577     1.3718    -0.3541 N.2     
  12 C12            6.1708     1.7991    -0.4243 C.2     
  13 C13            7.1256     0.6390    -0.2551 C.3     
  14 F14            1.1498     3.4439     0.1437 F       
  15 C15            6.5674     3.2038    -0.6404 C.2     
  16 C16            7.8874     3.6978    -0.7222 C.2     
  17 N17            7.8268     4.9871    -0.9184 N.2     
  18 N18            6.4828     5.3740    -0.9708 N.pl3   
  19 C19            5.7181     4.2768    -0.8058 C.2     
  20 C20            5.9910     6.7387    -1.1759 C.3     
  21 C21            6.5961     7.6516    -0.1408 C.ar    
  22 C22            7.7937     8.2917    -0.3991 C.ar    
  23 C23            8.3488     9.1291     0.5504 C.ar    
  24 C24            7.7059     9.3267     1.7581 C.ar    
  25 C25            6.5078     8.6873     2.0161 C.ar    
  26 C26            5.9506     7.8533     1.0649 C.ar    
  27 H27           -0.9574     1.9076     0.0720 H       
  28 H28           -0.9267    -0.5494    -0.0313 H       
  29 H29            1.2150    -1.7570    -0.0829 H       
  30 H30            3.3091     1.9822     0.0804 H       
  31 H31            6.3654    -1.0414     0.9048 H       
  32 H32            6.3532    -1.3036    -0.8689 H       
  33 H33            7.7506     0.7837     0.6262 H       
  34 H34            7.7416     0.5178    -1.1461 H       
  35 H35            8.7902     3.1112    -0.6373 H       
  36 H36            4.6386     4.2451    -0.7972 H       
  37 H37            6.2733     7.0808    -2.1716 H       
  38 H38            4.9052     6.7516    -1.0816 H       
  39 H39            8.2960     8.1373    -1.3427 H       
  40 H40            9.2848     9.6287     0.3488 H       
  41 H41            8.1399     9.9804     2.5002 H       
  42 H42            6.0057     8.8415     2.9598 H       
  43 H43            5.0145     7.3538     1.2664 H       
@<TRIPOS>BOND
   1    1    2 ar
   2    1    6 ar
   3    1   27 1
   4    2    3 ar
   5    2   28 1
   6    3    4 ar
   7    3   29 1
   8    4    5 ar
   9    4    7 1
  10    5    6 ar
  11    5   30 1
  12    6   14 1
  13    7    8 2
  14    7    9 am
  15    9   10 1
  16    9   11 1
  17   10   13 1
  18   10   31 1
  19   10   32 1
  20   11   12 2
  21   12   13 1
  22   12   15 1
  23   13   33 1
  24   13   34 1
  25   15   16 1
  26   15   19 2
  27   16   17 2
  28   16   35 1
  29   17   18 1
  30   18   19 1
  31   18   20 1
  32   19   36 1
  33   20   21 1
  34   20   37 1
  35   20   38 1
  36   21   22 ar
  37   21   26 ar
  38   22   23 ar
  39   22   39 1
  40   23   24 ar
  41   23   40 1
  42   24   25 ar
  43   24   41 1
  44   25   26 ar
  45   25   42 1
  46   26   43 1

#	End of record

