#	Name: ASD01148681
#	Creating user name:	WinNT
#	Creation time:	15. 06. 2019 19:03

#	Modifying user name:	WinNT
#	Modification time:	15. 06. 2019 19:03

#	Program:	/corina/corina34_cracker 3.40 0067  02.08.2006

@<TRIPOS>MOLECULE
ASD01148681
  57   58    0    0    0
SMALL
NO_CHARGES


@<TRIPOS>ATOM
   1 C1            -0.2031     1.4274     0.2534 C.2     
   2 C2            -0.2352    -0.0512     0.2629 C.ar    
   3 C3             0.9589    -0.7844     0.3981 C.ar    
   4 C4             2.2526    -0.0812     0.5319 C.2     
   5 C5             0.9139    -2.1769     0.4053 C.ar    
   6 C6            -0.3002    -2.8300     0.2801 C.ar    
   7 C7            -1.4720    -2.1084     0.1470 C.ar    
   8 C8            -1.4466    -0.7258     0.1440 C.ar    
   9 O9             0.8564     2.0130     0.3626 O.2     
  10 N10           -1.3481     2.1254     0.1183 N.am    
  11 O11            2.6713     0.2166     1.6335 O.2     
  12 N12            2.9676     0.2296    -0.5674 N.am    
  13 C13            4.2494     0.9264    -0.4348 C.3     
  14 C14            5.1239     0.6219    -1.6528 C.3     
  15 S15            5.4152    -1.1656    -1.7563 S.o2    
  16 O16            6.1863    -1.5645    -0.6313 O.2     
  17 O17            4.1761    -1.8122    -2.0126 O.2     
  18 C18            6.4506    -1.2912    -3.2405 C.3     
  19 C19            4.0037     2.4340    -0.3475 C.3     
  20 C20           -1.3309     3.5208     0.2071 C.ar    
  21 C21           -2.2175     4.2774    -0.5488 C.ar    
  22 C22           -2.1978     5.6551    -0.4588 C.ar    
  23 C23           -1.2965     6.2819     0.3824 C.ar    
  24 C24           -0.4124     5.5319     1.1357 C.ar    
  25 C25           -0.4313     4.1530     1.0554 C.ar    
  26 C26           -1.2776     7.7858     0.4777 C.3     
  27 C27           -0.4970     8.2081     1.7240 C.3     
  28 C28           -0.6043     8.3673    -0.7671 C.3     
  29 F29           -1.3181     7.9812    -1.9067 F       
  30 F30           -0.5868     9.7634    -0.6786 F       
  31 F31            0.7075     7.8890    -0.8542 F       
  32 F32            0.8512     7.8692     1.5669 F       
  33 F33           -0.6127     9.5911     1.9004 F       
  34 F34           -1.0157     7.5501     2.8443 F       
  35 F35           -2.5894     8.2641     0.5648 F       
  36 C36           -3.1993     3.5953    -1.4663 C.3     
  37 Cl37           2.3796    -3.0925     0.5708 Cl      
  38 H38           -0.3322    -3.9095     0.2860 H       
  39 H39           -2.4138    -2.6279     0.0496 H       
  40 H40           -2.3668    -0.1692     0.0448 H       
  41 H41           -2.1841     1.6598    -0.0406 H       
  42 H42            2.6335    -0.0081    -1.4465 H       
  43 H43            4.7552     0.5878     0.4694 H       
  44 H44            4.6181     0.9605    -2.5570 H       
  45 H45            6.0776     1.1403    -1.5541 H       
  46 H46            7.3653    -0.7165    -3.0951 H       
  47 H47            6.7028    -2.3363    -3.4201 H       
  48 H48            5.9058    -0.8963    -4.0980 H       
  49 H49            3.3808     2.6510     0.5202 H       
  50 H50            4.9575     2.9525    -0.2488 H       
  51 H51            3.4980     2.7727    -1.2517 H       
  52 H52           -2.8868     6.2439    -1.0461 H       
  53 H53            0.2904     6.0244     1.7913 H       
  54 H54            0.2560     3.5675     1.6479 H       
  55 H55           -4.1220     3.3904    -0.9235 H       
  56 H56           -3.4138     4.2439    -2.3157 H       
  57 H57           -2.7721     2.6583    -1.8236 H       
@<TRIPOS>BOND
   1    1    2 1
   2    1    9 2
   3    1   10 am
   4    2    3 ar
   5    2    8 ar
   6    3    4 1
   7    3    5 ar
   8    4   11 2
   9    4   12 am
  10    5    6 ar
  11    5   37 1
  12    6    7 ar
  13    6   38 1
  14    7    8 ar
  15    7   39 1
  16    8   40 1
  17   10   20 1
  18   10   41 1
  19   12   13 1
  20   12   42 1
  21   13   14 1
  22   13   19 1
  23   13   43 1
  24   14   15 1
  25   14   44 1
  26   14   45 1
  27   15   16 2
  28   15   17 2
  29   15   18 1
  30   18   46 1
  31   18   47 1
  32   18   48 1
  33   19   49 1
  34   19   50 1
  35   19   51 1
  36   20   21 ar
  37   20   25 ar
  38   21   22 ar
  39   21   36 1
  40   22   23 ar
  41   22   52 1
  42   23   24 ar
  43   23   26 1
  44   24   25 ar
  45   24   53 1
  46   25   54 1
  47   26   27 1
  48   26   28 1
  49   26   35 1
  50   27   32 1
  51   27   33 1
  52   27   34 1
  53   28   29 1
  54   28   30 1
  55   28   31 1
  56   36   55 1
  57   36   56 1
  58   36   57 1

#	End of record

