#	Name: ASD01913486
#	Creating user name:	WinNT
#	Creation time:	15. 06. 2019 20:01

#	Modifying user name:	WinNT
#	Modification time:	15. 06. 2019 20:01

#	Program:	/corina/corina34_cracker 3.40 0067  02.08.2006

@<TRIPOS>MOLECULE
ASD01913486
  33   35    0    0    0
SMALL
NO_CHARGES


@<TRIPOS>ATOM
   1 C1            -0.3509    -0.6993    -2.1222 C.ar    
   2 C2            -0.8030    -0.0336    -0.9874 C.ar    
   3 C3            -0.7799     1.3574    -0.9861 C.ar    
   4 N4            -0.3321     1.9930    -2.0563 N.ar    
   5 C5             0.0878     1.3263    -3.1126 C.ar    
   6 N6             0.0817     0.0090    -3.1523 N.ar    
   7 C7            -1.2379    -2.0818     0.0340 C.ar    
   8 C8            -0.0434    -2.7755     0.1694 C.ar    
   9 N9            -0.0175    -4.0927     0.1199 N.ar    
  10 C10           -1.1126    -4.8037    -0.0584 C.ar    
  11 C11           -2.3477    -4.1835    -0.2023 C.ar    
  12 C12           -2.4165    -2.7944    -0.1558 C.ar    
  13 N13           -3.5056    -4.9448    -0.3916 N.am    
  14 C14           -4.6711    -4.5462     0.1554 C.2     
  15 O15           -1.2559    -0.7243     0.0919 O.3     
  16 C16           -5.8695    -5.4088     0.0539 C.ar    
  17 C17           -7.0714    -4.9904     0.6218 C.ar    
  18 C18           -8.1851    -5.8073     0.5195 C.ar    
  19 C19           -8.0588    -7.0179    -0.1490 C.ar    
  20 N20           -5.7909    -6.5718    -0.5822 N.ar    
  21 O21           -4.7380    -3.4783     0.7320 O.2     
  22 C22           -6.8291    -7.3704    -0.6906 C.ar    
  23 F23           -9.1206    -7.8444    -0.2708 F       
  24 H24           -0.3490    -1.7786    -2.1599 H       
  25 H25           -1.1229     1.9103    -0.1240 H       
  26 H26            0.4474     1.8751    -3.9704 H       
  27 H27            0.8765    -2.2293     0.3168 H       
  28 H28           -1.0494    -5.8813    -0.0935 H       
  29 H29           -3.3614    -2.2829    -0.2643 H       
  30 H30           -3.4698    -5.7596    -0.9167 H       
  31 H31           -7.1334    -4.0422     1.1351 H       
  32 H32           -9.1299    -5.5099     0.9499 H       
  33 H33           -6.7259    -8.3111    -1.2111 H       
@<TRIPOS>BOND
   1    1    2 ar
   2    1    6 ar
   3    1   24 1
   4    2    3 ar
   5    2   15 1
   6    3    4 ar
   7    3   25 1
   8    4    5 ar
   9    5    6 ar
  10    5   26 1
  11    7    8 ar
  12    7   12 ar
  13    7   15 1
  14    8    9 ar
  15    8   27 1
  16    9   10 ar
  17   10   11 ar
  18   10   28 1
  19   11   12 ar
  20   11   13 1
  21   12   29 1
  22   13   14 am
  23   13   30 1
  24   14   16 1
  25   14   21 2
  26   16   17 ar
  27   16   20 ar
  28   17   18 ar
  29   17   31 1
  30   18   19 ar
  31   18   32 1
  32   19   22 ar
  33   19   23 1
  34   20   22 ar
  35   22   33 1

#	End of record

