#	Name: ASD05143271
#	Creating user name:	WinNT
#	Creation time:	15. 06. 2019 20:57

#	Modifying user name:	WinNT
#	Modification time:	15. 06. 2019 20:57

#	Program:	/corina/corina34_cracker 3.40 0067  02.08.2006

@<TRIPOS>MOLECULE
ASD05143271
  45   47    0    0    0
SMALL
NO_CHARGES


@<TRIPOS>ATOM
   1 C1            -0.2485     1.4573     0.0971 C.2     
   2 N2            -0.0167     0.2030    -0.2360 N.2     
   3 S3            -1.5412    -0.5445    -0.3035 S.3     
   4 C4            -2.4160     0.8768     0.1221 C.2     
   5 N5            -1.5042     1.8095     0.2901 N.2     
   6 N6            -3.7848     1.0080     0.2624 N.pl3   
   7 C7            -4.3273     2.2038     0.7478 C.ar    
   8 C8            -5.6253     2.5650     0.4112 C.ar    
   9 C9            -6.1599     3.7445     0.8908 C.ar    
  10 C10           -5.4005     4.5687     1.7083 C.ar    
  11 C11           -4.1037     4.2089     2.0447 C.ar    
  12 C12           -3.5698     3.0268     1.5710 C.ar    
  13 C13            1.2021    -0.3780    -0.4782 C.ar    
  14 C14            1.6063    -1.4927     0.2586 C.ar    
  15 C15            2.0413     0.1393    -1.4666 C.ar    
  16 C16            3.2655    -0.4500    -1.7054 C.ar    
  17 C17            3.6622    -1.5515    -0.9679 C.ar    
  18 C18            2.8330    -2.0724     0.0096 C.ar    
  19 C19            0.8577     2.4303     0.2540 C.ar    
  20 C20            0.6587     3.7737    -0.0627 C.ar    
  21 C21            2.1005     2.0073     0.7246 C.ar    
  22 C22            3.1268     2.9182     0.8691 C.ar    
  23 C23            2.9248     4.2487     0.5487 C.ar    
  24 C24            1.6927     4.6752     0.0860 C.ar    
  25 O25           -5.9275     5.7302     2.1798 O.3     
  26 C26           -5.0896     6.5303     3.0163 C.3     
  27 H27           -4.3695     0.2714     0.0246 H       
  28 H28           -6.2164     1.9238    -0.2259 H       
  29 H29           -7.1693     4.0255     0.6291 H       
  30 H30           -3.5131     4.8514     2.6809 H       
  31 H31           -2.5603     2.7466     1.8333 H       
  32 H32            0.9601    -1.9000     1.0221 H       
  33 H33            1.7327     0.9987    -2.0432 H       
  34 H34            3.9156    -0.0510    -2.4700 H       
  35 H35            4.6215    -2.0093    -1.1591 H       
  36 H36            3.1488    -2.9321     0.5820 H       
  37 H37           -0.3027     4.1078    -0.4240 H       
  38 H38            2.2592     0.9689     0.9757 H       
  39 H39            4.0897     2.5918     1.2335 H       
  40 H40            3.7310     4.9581     0.6638 H       
  41 H41            1.5409     5.7152    -0.1626 H       
  42 H42           -4.1940     6.8174     2.4653 H       
  43 H43           -5.6305     7.4258     3.3224 H       
  44 H44           -4.8050     5.9581     3.8993 H       
  45 Br45           9.6215    12.4258     8.8993 Br      
@<TRIPOS>BOND
   1    1    2 2
   2    1   19 1
   3    1    5 1
   4    2    3 1
   5    2   13 1
   6    3    4 1
   7    4    5 2
   8    4    6 1
   9    6    7 1
  10    6   27 1
  11    7    8 ar
  12    7   12 ar
  13    8    9 ar
  14    8   28 1
  15    9   10 ar
  16    9   29 1
  17   10   11 ar
  18   10   25 1
  19   11   12 ar
  20   11   30 1
  21   12   31 1
  22   13   14 ar
  23   13   15 ar
  24   14   18 ar
  25   14   32 1
  26   15   16 ar
  27   15   33 1
  28   16   17 ar
  29   16   34 1
  30   17   18 ar
  31   17   35 1
  32   18   36 1
  33   19   20 ar
  34   19   21 ar
  35   20   24 ar
  36   20   37 1
  37   21   22 ar
  38   21   38 1
  39   22   23 ar
  40   22   39 1
  41   23   24 ar
  42   23   40 1
  43   24   41 1
  44   25   26 1
  45   26   42 1
  46   26   43 1
  47   26   44 1

#	End of record

