#	Name: ASD03731826
#	Creating user name:	WinNT
#	Creation time:	15. 06. 2019 20:46

#	Modifying user name:	WinNT
#	Modification time:	15. 06. 2019 20:46

#	Program:	/corina/corina34_cracker 3.40 0067  02.08.2006

@<TRIPOS>MOLECULE
ASD03731826
  37   38    0    0    0
SMALL
NO_CHARGES


@<TRIPOS>ATOM
   1 C1            -0.4035     1.1038    -1.9612 C.2     
   2 C2            -0.2822    -0.2742    -1.4508 C.ar    
   3 C3             0.9016    -0.9950    -1.6494 C.ar    
   4 C4             1.0100    -2.2844    -1.1691 C.ar    
   5 C5            -0.0530    -2.8659    -0.4905 C.ar    
   6 C6            -1.2312    -2.1525    -0.2917 C.ar    
   7 C7            -1.3466    -0.8631    -0.7619 C.ar    
   8 O8             0.5254     1.6160    -2.5558 O.2     
   9 N9            -1.5460     1.7937    -1.7737 N.am    
  10 S10           -1.6824     3.3413    -2.3470 S.o2    
  11 O11           -2.9844     3.7488    -1.9495 O.2     
  12 O12           -0.5252     4.0014    -1.8524 O.2     
  13 C13           -1.5931     3.1655    -4.1502 C.3     
  14 O14            0.0574    -4.1342    -0.0202 O.3     
  15 C15            1.2595    -4.7565    -0.1396 C.ar    
  16 C16            2.2101    -4.6279     0.8620 C.ar    
  17 C17            3.4353    -5.2639     0.7371 C.ar    
  18 C18            3.7079    -6.0276    -0.3893 C.ar    
  19 C19            2.7595    -6.1539    -1.3859 C.ar    
  20 C20            1.5348    -5.5259    -1.2612 C.ar    
  21 O21            4.3690    -5.1394     1.7166 O.3     
  22 C22            5.6091    -5.8222     1.5214 C.3     
  23 F23            1.9355    -0.4297    -2.3103 F       
  24 Cl24          -2.5559    -2.8869     0.5565 Cl      
  25 H25            1.9224    -2.8418    -1.3214 H       
  26 H26           -2.2600    -0.3093    -0.6028 H       
  27 H27           -2.2884     1.3837    -1.3029 H       
  28 H28           -2.4097     2.5308    -4.4943 H       
  29 H29           -1.6756     4.1478    -4.6155 H       
  30 H30           -0.6404     2.7125    -4.4244 H       
  31 H31            1.9963    -4.0329     1.7375 H       
  32 H32            4.6624    -6.5234    -0.4870 H       
  33 H33            2.9738    -6.7481    -2.2620 H       
  34 H34            0.7931    -5.6304    -2.0392 H       
  35 H35            6.0868    -5.4552     0.6130 H       
  36 H36            6.2625    -5.6399     2.3746 H       
  37 H37            5.4238    -6.8922     1.4276 H       
@<TRIPOS>BOND
   1    1    2 1
   2    1    8 2
   3    1    9 am
   4    2    3 ar
   5    2    7 ar
   6    3    4 ar
   7    3   23 1
   8    4    5 ar
   9    4   25 1
  10    5    6 ar
  11    5   14 1
  12    6    7 ar
  13    6   24 1
  14    7   26 1
  15    9   10 am
  16    9   27 1
  17   10   11 2
  18   10   12 2
  19   10   13 1
  20   13   28 1
  21   13   29 1
  22   13   30 1
  23   14   15 1
  24   15   16 ar
  25   15   20 ar
  26   16   17 ar
  27   16   31 1
  28   17   18 ar
  29   17   21 1
  30   18   19 ar
  31   18   32 1
  32   19   20 ar
  33   19   33 1
  34   20   34 1
  35   21   22 1
  36   22   35 1
  37   22   36 1
  38   22   37 1

#	End of record

