#	Name: ASD01911901
#	Creating user name:	WinNT
#	Creation time:	15. 06. 2019 19:58

#	Modifying user name:	WinNT
#	Modification time:	15. 06. 2019 19:58

#	Program:	/corina/corina34_cracker 3.40 0067  02.08.2006

@<TRIPOS>MOLECULE
ASD01911901
  39   41    0    0    0
SMALL
NO_CHARGES


@<TRIPOS>ATOM
   1 C1            -1.5653     1.3908     0.7327 C.ar    
   2 C2            -1.3503     0.0203     0.8374 C.ar    
   3 C3            -1.2851    -0.5415     2.1084 C.ar    
   4 N4            -1.4288     0.2418     3.1647 N.ar    
   5 C5            -1.6312     1.5365     3.0241 C.ar    
   6 N6            -1.6992     2.1059     1.8375 N.ar    
   7 O7            -1.2080    -0.7498    -0.2733 O.3     
   8 C8            -0.9969    -2.0814    -0.1035 C.ar    
   9 C9            -2.0557    -2.9157     0.2286 C.ar    
  10 C10           -1.8426    -4.2698     0.4015 C.ar    
  11 C11           -0.5756    -4.7981     0.2446 C.ar    
  12 C12            0.4876    -3.9683    -0.0881 C.ar    
  13 C13            0.2745    -2.6084    -0.2674 C.ar    
  14 N14            1.7700    -4.5030    -0.2470 N.am    
  15 C15            2.8517    -3.7672     0.0771 C.2     
  16 C16            4.2084    -4.2910    -0.1884 C.ar    
  17 O17            2.7118    -2.6729     0.5876 O.2     
  18 C18            4.3709    -5.5482    -0.7750 C.ar    
  19 C19            5.6375    -6.0394    -1.0233 C.ar    
  20 C20            6.7511    -5.2929    -0.6942 C.ar    
  21 C21            6.6032    -4.0334    -0.1068 C.ar    
  22 C22            5.3278    -3.5292     0.1408 C.ar    
  23 C23            7.7593    -3.2604     0.2345 C.1     
  24 C24           -2.9942    -5.1723     0.7625 C.3     
  25 F25           -4.1658    -4.4147     0.8657 F       
  26 F26           -3.1536    -6.1448    -0.2305 F       
  27 F27           -2.7323    -5.7952     1.9875 F       
  28 N28            8.6764    -2.6471     0.5052 N.1     
  29 H29           -1.6177     1.8647    -0.2364 H       
  30 H30           -1.1198    -1.6017     2.2310 H       
  31 H31           -1.7449     2.1484     3.9067 H       
  32 H32           -3.0472    -2.5057     0.3523 H       
  33 H33           -0.4116    -5.8568     0.3810 H       
  34 H34            1.0993    -1.9610    -0.5265 H       
  35 H35            1.8809    -5.4033    -0.5904 H       
  36 H36            3.5040    -6.1376    -1.0346 H       
  37 H37            5.7573    -7.0123    -1.4767 H       
  38 H38            7.7387    -5.6831    -0.8907 H       
  39 H39            5.2076    -2.5564     0.5942 H       
@<TRIPOS>BOND
   1    1    2 ar
   2    1    6 ar
   3    1   29 1
   4    2    3 ar
   5    2    7 1
   6    3    4 ar
   7    3   30 1
   8    4    5 ar
   9    5    6 ar
  10    5   31 1
  11    7    8 1
  12    8    9 ar
  13    8   13 ar
  14    9   10 ar
  15    9   32 1
  16   10   11 ar
  17   10   24 1
  18   11   12 ar
  19   11   33 1
  20   12   13 ar
  21   12   14 1
  22   13   34 1
  23   14   15 am
  24   14   35 1
  25   15   16 1
  26   15   17 2
  27   16   18 ar
  28   16   22 ar
  29   18   19 ar
  30   18   36 1
  31   19   20 ar
  32   19   37 1
  33   20   21 ar
  34   20   38 1
  35   21   22 ar
  36   21   23 1
  37   22   39 1
  38   23   28 3
  39   24   25 1
  40   24   26 1
  41   24   27 1

#	End of record

