#	Name: ASD01411059
#	Creating user name:	WinNT
#	Creation time:	15. 06. 2019 19:19

#	Modifying user name:	WinNT
#	Modification time:	15. 06. 2019 19:19

#	Program:	/corina/corina34_cracker 3.40 0067  02.08.2006

@<TRIPOS>MOLECULE
ASD01411059
  37   39    0    0    0
SMALL
NO_CHARGES


@<TRIPOS>ATOM
   1 C1             1.0940     1.3838     1.1969 C.ar    
   2 C2             1.1100     0.0029     1.1873 C.ar    
   3 C3             1.1769     2.0866     0.0020 C.ar    
   4 C4             1.2090    -0.6808    -0.0106 C.ar    
   5 C5             1.2757     1.3986    -1.1994 C.ar    
   6 N6             1.1604     3.4878     0.0092 N.am    
   7 C7             1.2922     0.0162    -1.2031 C.ar    
   8 C8             2.3267     4.1627     0.0988 C.2     
   9 C9            -0.0137     4.1320    -0.0785 C.2     
  10 Cl10           1.4169    -0.8458    -2.7048 Cl      
  11 C11            2.2838     5.6328     0.1045 C.ar    
  12 O12            3.3861     3.5696     0.1734 O.2     
  13 N13           -0.1103     5.4728    -0.0783 N.am    
  14 O14           -1.0333     3.4750    -0.1621 O.2     
  15 C15            1.0270     6.2624     0.0162 C.ar    
  16 C16            3.4458     6.3989     0.1948 C.ar    
  17 C17            0.9522     7.6431     0.0194 C.ar    
  18 C18            3.3596     7.7626     0.1972 C.ar    
  19 C19            2.1189     8.3930     0.1099 C.ar    
  20 N20            2.0484     9.7819     0.1140 N.pl3   
  21 C21            3.2749    10.5773     0.2098 C.3     
  22 C22            2.9201    12.0656     0.1936 C.3     
  23 O23            2.1676    12.3886     1.3647 O.3     
  24 H24            1.0126     1.9167     2.1327 H       
  25 H25            1.0456    -0.5437     2.1165 H       
  26 H26            1.2217    -1.7607    -0.0154 H       
  27 H27            1.3404     1.9426    -2.1302 H       
  28 H28           -0.9826     5.8920    -0.1445 H       
  29 H29            4.4096     5.9164     0.2630 H       
  30 H30           -0.0066     8.1356    -0.0483 H       
  31 H31            4.2590     8.3565     0.2670 H       
  32 H32            1.1871    10.2240     0.0535 H       
  33 H33            3.7921    10.3372     1.1387 H       
  34 H34            3.9229    10.3491    -0.6364 H       
  35 H35            3.8355    12.6571     0.1752 H       
  36 H36            2.3260    12.2878    -0.6928 H       
  37 H37            1.9077    13.3183     1.4211 H       
@<TRIPOS>BOND
   1    1    2 ar
   2    1    3 ar
   3    1   24 1
   4    2    4 ar
   5    2   25 1
   6    3    5 ar
   7    3    6 1
   8    4    7 ar
   9    4   26 1
  10    5    7 ar
  11    5   27 1
  12    6    9 am
  13    6    8 am
  14    7   10 1
  15    8   11 1
  16    8   12 2
  17    9   13 am
  18    9   14 2
  19   11   15 ar
  20   11   16 ar
  21   13   15 1
  22   13   28 1
  23   15   17 ar
  24   16   18 ar
  25   16   29 1
  26   17   19 ar
  27   17   30 1
  28   18   19 ar
  29   18   31 1
  30   19   20 1
  31   20   21 1
  32   20   32 1
  33   21   22 1
  34   21   33 1
  35   21   34 1
  36   22   23 1
  37   22   35 1
  38   22   36 1
  39   23   37 1

#	End of record

