#	Name: ASD06590066
#	Creating user name:	WinNT
#	Creation time:	15. 06. 2019 21:06

#	Modifying user name:	WinNT
#	Modification time:	15. 06. 2019 21:06

#	Program:	/corina/corina34_cracker 3.40 0067  02.08.2006

@<TRIPOS>MOLECULE
ASD06590066
 267  269    0    0    0
SMALL
NO_CHARGES


@<TRIPOS>ATOM
   1 C1            -1.4098     1.0869    -0.9202 C.2     
   2 O2            -1.7153    -0.0126    -0.5093 O.2     
   3 N3             0.8472     0.2014    -1.0255 N.am    
   4 C4             0.0249     1.3892    -1.2686 C.3     
   5 C5             0.1195     1.7817    -2.7444 C.3     
   6 C6             1.5311     2.2022    -3.0628 C.2     
   7 C7             2.0092     3.4565    -3.0660 C.2     
   8 N8             3.3355     3.4496    -3.4025 N.pl3   
   9 C9             3.7539     2.1576    -3.6300 C.ar    
  10 C10            4.9739     1.5957    -3.9911 C.ar    
  11 C11            5.0796     0.2306    -4.1455 C.ar    
  12 C12            3.9799    -0.5918    -3.9442 C.ar    
  13 C13            2.7716    -0.0608    -3.5895 C.ar    
  14 C14            2.6435     1.3190    -3.4215 C.ar    
  15 C15           -4.6577     2.6529    -1.5216 C.2     
  16 O16           -4.2148     3.6647    -2.0227 O.2     
  17 N17           -2.3543     2.0365    -1.0705 N.am    
  18 C18           -3.7500     1.7406    -0.7375 C.3     
  19 C19           -3.9749     1.9613     0.7597 C.3     
  20 C20           -5.4299     1.6426     1.1093 C.3     
  21 O21           -3.1074     1.1030     1.5033 O.3     
  22 C22           -8.2634     3.1060    -1.7707 C.2     
  23 O23           -8.5284     2.1279    -1.1044 O.2     
  24 N24           -5.9617     2.3443    -1.6662 N.am    
  25 C25           -6.8709     3.2916    -2.3160 C.3     
  26 C26           -6.8764     3.0397    -3.8251 C.3     
  27 C27           -7.7771     4.0690    -4.5107 C.3     
  28 C28           -7.1562     5.4607    -4.3752 C.3     
  29 C29           -7.9190     3.7159    -5.9927 C.3     
  30 C30          -11.5432     4.5866    -2.4140 C.2     
  31 O31          -11.1259     5.2446    -3.3434 O.2     
  32 N32           -9.2144     4.0270    -2.0235 N.am    
  33 C33          -10.5827     3.8177    -1.5438 C.3     
  34 C34          -10.6977     4.3092    -0.0995 C.3     
  35 C35          -14.9928     5.7099    -2.0921 C.2     
  36 O36          -15.2428     5.0524    -1.1041 O.2     
  37 N37          -12.8660     4.5430    -2.1595 N.am    
  38 C38          -13.7890     5.3756    -2.9348 C.3     
  39 C39          -14.2365     4.6138    -4.1839 C.3     
  40 C40          -15.1369     5.5124    -5.0340 C.3     
  41 C41          -14.3201     6.6877    -5.5748 C.3     
  42 C42          -15.7051     4.7054    -6.2031 C.3     
  43 C43          -18.1599     6.4142    -2.0190 C.2     
  44 O44          -18.1229     5.6638    -2.9711 O.2     
  45 N45          -15.7915     6.7394    -2.4363 N.am    
  46 C46          -16.9081     7.1221    -1.5685 C.3     
  47 C47          -17.1210     8.6351    -1.6487 C.3     
  48 C48          -15.9061     9.3428    -1.1061 C.2     
  49 O49          -15.0094     8.7061    -0.6056 O.2     
  50 O50          -15.8202    10.6803    -1.1789 O.3     
  51 C51          -21.7449     6.7198    -1.3731 C.2     
  52 O52          -21.6030     7.7577    -0.7619 O.2     
  53 N53          -19.3205     6.6149    -1.3638 N.am    
  54 C54          -20.5373     5.9267    -1.8017 C.3     
  55 C55          -20.5912     4.5342    -1.1700 C.3     
  56 C56          -19.4508     3.7002    -1.6944 C.ar    
  57 C57          -18.2355     3.6989    -1.0358 C.ar    
  58 C58          -17.1894     2.9339    -1.5169 C.ar    
  59 C59          -17.3588     2.1699    -2.6564 C.ar    
  60 C60          -18.5745     2.1705    -3.3145 C.ar    
  61 C61          -19.6218     2.9321    -2.8309 C.ar    
  62 C62          -25.3438     6.1268    -1.1288 C.2     
  63 O63          -25.2214     4.9437    -1.3657 O.2     
  64 N64          -22.9826     6.2757    -1.6688 N.am    
  65 C65          -24.1565     7.0467    -1.2521 C.3     
  66 C66          -24.4539     8.1264    -2.2946 C.3     
  67 C67          -23.3012     9.1318    -2.3307 C.3     
  68 C68          -23.5986    10.2115    -3.3732 C.3     
  69 C69          -22.4459    11.2169    -3.4092 C.3     
  70 N70          -22.7315    12.2535    -4.4102 N.3     
  71 C71          -28.9653     6.5158    -0.8187 C.2     
  72 O72          -28.9113     7.7090    -1.0287 O.2     
  73 N73          -26.5416     6.6190    -0.7553 N.am    
  74 C74          -27.6958     5.7247    -0.6354 C.3     
  75 C75          -27.6955     5.0745     0.7495 C.3     
  76 C76          -26.4680     4.1719     0.8889 C.3     
  77 C77          -26.4677     3.5216     2.2738 C.3     
  78 N78          -25.2923     2.6574     2.4073 N.pl3   
  79 C79          -25.0783     1.9634     3.5747 C.2     
  80 N80          -25.9211     2.0745     4.5627 N.2     
  81 N81          -23.9753     1.1524     3.6999 N.pl3   
  82 C82          -32.5305     5.9622    -0.2304 C.2     
  83 O83          -32.3288     4.9206     0.3573 O.2     
  84 N84          -30.1607     5.8972    -0.7491 N.am    
  85 C85          -31.3949     6.6662    -0.9273 C.3     
  86 C86          -31.7092     6.7876    -2.4197 C.3     
  87 C87          -30.6169     7.6106    -3.1057 C.3     
  88 C88          -30.9313     7.7319    -4.5981 C.3     
  89 C89          -29.8390     8.5549    -5.2841 C.3     
  90 N90          -30.1408     8.6714    -6.7170 N.3     
  91 C91          -36.1787     6.1940    -0.2295 C.2     
  92 O92          -36.1855     6.9666    -1.1644 O.2     
  93 N93          -33.7703     6.4900    -0.2601 N.am    
  94 C94          -34.8742     5.8055     0.4174 C.3     
  95 C95          -34.8963     6.2099     1.8928 C.3     
  96 C96          -39.1017     7.3494     0.2056 C.2     
  97 O97          -38.4615     7.8963     1.0721 O.2     
  98 N98          -37.3377     5.6830     0.2308 N.am    
  99 C99          -38.6058     6.0606    -0.3980 C.3     
 100 C100         -39.6395     4.9571    -0.1644 C.3     
 101 C101         -39.1953     3.6816    -0.8833 C.3     
 102 C102         -40.2290     2.5781    -0.6496 C.3     
 103 N103         -39.8036     1.3569    -1.3379 N.pl3   
 104 C104         -40.5794     0.2239    -1.2703 C.2     
 105 N105         -41.6934     0.2363    -0.5937 N.2     
 106 N106         -40.1802    -0.9222    -1.9163 N.pl3   
 107 O107         -40.2546     7.8897    -0.2195 O.3     
 108 C108           2.1643     0.3340    -0.7724 C.2     
 109 O109           2.6688     1.4366    -0.7458 O.2     
 110 C110          19.1482    -6.5925     3.0697 C.3     
 111 C111          18.2893    -5.3520     2.8159 C.3     
 112 C112          16.8428    -5.7775     2.5566 C.3     
 113 C113          15.9839    -4.5370     2.3027 C.3     
 114 C114          14.5373    -4.9626     2.0434 C.3     
 115 C115          13.6785    -3.7221     1.7896 C.3     
 116 C116          12.2319    -4.1476     1.5303 C.3     
 117 C117          11.3731    -2.9071     1.2764 C.3     
 118 C118           9.9265    -3.3327     1.0171 C.3     
 119 C119           9.0677    -2.0922     0.7633 C.3     
 120 C120           7.6211    -2.5177     0.5040 C.3     
 121 C121           6.7623    -1.2772     0.2501 C.3     
 122 C122           5.3157    -1.7028    -0.0092 C.3     
 123 C123           4.4568    -0.4623    -0.2630 C.3     
 124 C124           3.0103    -0.8879    -0.5223 C.3     
 125 H125           0.4438    -0.6804    -1.0467 H       
 126 H126           0.3833     2.2121    -0.6501 H       
 127 H127          -0.1545     0.9289    -3.3654 H       
 128 H128          -0.5602     2.6101    -2.9443 H       
 129 H129           1.4324     4.3404    -2.8371 H       
 130 H130           3.8972     4.2374    -3.4707 H       
 131 H131           5.8354     2.2273    -4.1503 H       
 132 H132           6.0277    -0.2038    -4.4262 H       
 133 H133           4.0797    -1.6599    -4.0693 H       
 134 H134           1.9201    -0.7070    -3.4349 H       
 135 H135          -2.1100     2.9158    -1.3991 H       
 136 H136          -3.9716     0.7035    -0.9893 H       
 137 H137          -3.7602     3.0002     1.0101 H       
 138 H138          -5.6442     0.6033     0.8600 H       
 139 H139          -5.5905     1.8010     2.1757 H       
 140 H140          -6.0916     2.2964     0.5411 H       
 141 H141          -2.1671     1.2495     1.3313 H       
 142 H142          -6.2982     1.4951    -1.3399 H       
 143 H143          -6.5362     4.3100    -2.1189 H       
 144 H144          -5.8614     3.1300    -4.2123 H       
 145 H145          -7.2535     2.0367    -4.0247 H       
 146 H146          -8.7602     4.0623    -4.0399 H       
 147 H147          -6.2012     5.4852    -4.9001 H       
 148 H148          -7.8279     6.2020    -4.8082 H       
 149 H149          -6.9971     5.6865    -3.3208 H       
 150 H150          -8.3614     2.7244    -6.0892 H       
 151 H151          -8.5607     4.4492    -6.4811 H       
 152 H152          -6.9359     3.7226    -6.4635 H       
 153 H153          -8.9928     4.8284    -2.5230 H       
 154 H154         -10.8242     2.7556    -1.5864 H       
 155 H155         -11.7157     4.1535     0.2574 H       
 156 H156         -10.0029     3.7531     0.5300 H       
 157 H157         -10.4562     5.3713    -0.0568 H       
 158 H158         -13.2070     3.9603    -1.4630 H       
 159 H159         -13.2861     6.2961    -3.2313 H       
 160 H160         -13.3614     4.3225    -4.7648 H       
 161 H161         -14.7890     3.7223    -3.8873 H       
 162 H162         -15.9556     5.8902    -4.4215 H       
 163 H163         -14.9354     7.2745    -6.2568 H       
 164 H164         -13.9955     7.3165    -4.7458 H       
 165 H165         -13.4475     6.3092    -6.1071 H       
 166 H166         -16.2870     3.8681    -5.8179 H       
 167 H167         -16.3466     5.3456    -6.8088 H       
 168 H168         -14.8865     4.3276    -6.8157 H       
 169 H169         -15.6271     7.2270    -3.2585 H       
 170 H170         -16.6819     6.8410    -0.5400 H       
 171 H171         -17.2768     8.9256    -2.6877 H       
 172 H172         -17.9954     8.9108    -1.0593 H       
 173 H173         -15.0219    11.0893    -0.8175 H       
 174 H174         -19.3500     7.2150    -0.6023 H       
 175 H175         -20.5310     5.8329    -2.8877 H       
 176 H176         -20.5081     4.6232    -0.0868 H       
 177 H177         -21.5374     4.0564    -1.4237 H       
 178 H178         -18.1031     4.2958    -0.1455 H       
 179 H179         -16.2397     2.9335    -1.0027 H       
 180 H180         -16.5413     1.5728    -3.0326 H       
 181 H181         -18.7067     1.5739    -4.2049 H       
 182 H182         -20.5727     2.9297    -3.3430 H       
 183 H183         -23.0960     5.4456    -2.1576 H       
 184 H184         -23.9593     7.5166    -0.2885 H       
 185 H185         -24.5635     7.6639    -3.2755 H       
 186 H186         -25.3774     8.6417    -2.0307 H       
 187 H187         -23.1916     9.5943    -1.3497 H       
 188 H188         -22.3777     8.6165    -2.5946 H       
 189 H189         -23.7082     9.7490    -4.3541 H       
 190 H190         -24.5221    10.7268    -3.1093 H       
 191 H191         -22.3364    11.6794    -2.4283 H       
 192 H192         -21.5224    10.7016    -3.6732 H       
 193 H193         -21.9843    12.9302    -4.4532 H       
 194 H194         -22.9010    11.8440    -5.3166 H       
 195 H195         -26.6395     7.5652    -0.5658 H       
 196 H196         -27.6365     4.9505    -1.4004 H       
 197 H197         -27.6651     5.8499     1.5150 H       
 198 H198         -28.6002     4.4788     0.8714 H       
 199 H199         -26.4984     3.3965     0.1234 H       
 200 H200         -25.5633     4.7675     0.7670 H       
 201 H201         -26.4373     4.2970     3.0393 H       
 202 H202         -27.3724     2.9260     2.3957 H       
 203 H203         -24.6651     2.5747     1.6720 H       
 204 H204         -25.7701     1.5849     5.3864 H       
 205 H205         -23.3480     1.0698     2.9646 H       
 206 H206         -23.8243     0.6628     4.5235 H       
 207 H207         -30.2039     4.9429    -0.5812 H       
 208 H208         -31.2678     7.6612    -0.5007 H       
 209 H209         -31.7486     5.7934    -2.8648 H       
 210 H210         -32.6720     7.2820    -2.5492 H       
 211 H211         -30.5776     8.6048    -2.6607 H       
 212 H212         -29.6542     7.1161    -2.9762 H       
 213 H213         -30.9706     6.7377    -5.0432 H       
 214 H214         -31.8940     8.2263    -4.7276 H       
 215 H215         -29.7996     9.5491    -4.8391 H       
 216 H216         -28.8762     8.0605    -5.1546 H       
 217 H217         -29.4334     9.2111    -7.1929 H       
 218 H218         -30.2464     7.7612    -7.1395 H       
 219 H219         -33.9316     7.3231    -0.7301 H       
 220 H220         -34.7364     4.7272     0.3382 H       
 221 H221         -33.9528     5.9290     2.3607 H       
 222 H222         -35.0341     7.2883     1.9719 H       
 223 H223         -35.7177     5.7007     2.3969 H       
 224 H224         -37.3322     5.0651     0.9786 H       
 225 H225         -38.4543     6.1957    -1.4690 H       
 226 H226         -39.7259     4.7605     0.9043 H       
 227 H227         -40.6060     5.2761    -0.5544 H       
 228 H228         -39.1089     3.8782    -1.9519 H       
 229 H229         -38.2287     3.3626    -0.4932 H       
 230 H230         -40.3154     2.3816     0.4190 H       
 231 H231         -41.1955     2.8971    -1.0397 H       
 232 H232         -38.9745     1.3476    -1.8414 H       
 233 H233         -42.2408    -0.5631    -0.5460 H       
 234 H234         -39.3511    -0.9315    -2.4197 H       
 235 H235         -40.7276    -1.7216    -1.8685 H       
 236 H236         -40.5317     8.7170     0.1975 H       
 237 H237          18.7656    -7.1276     3.9388 H       
 238 H238          19.1121    -7.2442     2.1968 H       
 239 H239          20.1787    -6.2893     3.2544 H       
 240 H240          18.3254    -4.7002     3.6888 H       
 241 H241          18.6720    -4.8168     1.9468 H       
 242 H242          16.8067    -6.4293     1.6837 H       
 243 H243          16.4601    -6.3127     3.4257 H       
 244 H244          16.0200    -3.8853     3.1756 H       
 245 H245          16.3665    -4.0019     1.4336 H       
 246 H246          14.5013    -5.6143     1.1705 H       
 247 H247          14.1547    -5.4977     2.9125 H       
 248 H248          13.7146    -3.0703     2.6625 H       
 249 H249          14.0611    -3.1869     0.9205 H       
 250 H250          12.1958    -4.7994     0.6574 H       
 251 H251          11.8493    -4.6828     2.3994 H       
 252 H252          11.4092    -2.2554     2.1493 H       
 253 H253          11.7557    -2.3720     0.4073 H       
 254 H254           9.8904    -3.9845     0.1442 H       
 255 H255           9.5439    -3.8679     1.8862 H       
 256 H256           9.1038    -1.4404     1.6362 H       
 257 H257           9.4503    -1.5570    -0.1058 H       
 258 H258           7.5850    -3.1695    -0.3689 H       
 259 H259           7.2385    -3.0529     1.3731 H       
 260 H260           6.7984    -0.6255     1.1230 H       
 261 H261           7.1449    -0.7421    -0.6190 H       
 262 H262           5.2796    -2.3546    -0.8821 H       
 263 H263           4.9331    -2.2380     0.8599 H       
 264 H264           4.4929     0.1895     0.6099 H       
 265 H265           4.8395     0.0729    -1.1321 H       
 266 H266           2.6276    -1.4230     0.3468 H       
 267 H267           2.9742    -1.5396    -1.3952 H       
@<TRIPOS>BOND
   1    1    2 2
   2    1    4 1
   3    1   17 am
   4    3  108 am
   5    3    4 1
   6    3  125 1
   7    4    5 1
   8    4  126 1
   9    5    6 1
  10    5  127 1
  11    5  128 1
  12    6    7 2
  13    6   14 1
  14    7    8 1
  15    7  129 1
  16    8    9 1
  17    8  130 1
  18    9   10 ar
  19    9   14 ar
  20   10   11 ar
  21   10  131 1
  22   11   12 ar
  23   11  132 1
  24   12   13 ar
  25   12  133 1
  26   13   14 ar
  27   13  134 1
  28   15   16 2
  29   15   18 1
  30   15   24 am
  31   17   18 1
  32   17  135 1
  33   18   19 1
  34   18  136 1
  35   19   20 1
  36   19   21 1
  37   19  137 1
  38   20  138 1
  39   20  139 1
  40   20  140 1
  41   21  141 1
  42   22   23 2
  43   22   25 1
  44   22   32 am
  45   24   25 1
  46   24  142 1
  47   25   26 1
  48   25  143 1
  49   26   27 1
  50   26  144 1
  51   26  145 1
  52   27   28 1
  53   27   29 1
  54   27  146 1
  55   28  147 1
  56   28  148 1
  57   28  149 1
  58   29  150 1
  59   29  151 1
  60   29  152 1
  61   30   31 2
  62   30   33 1
  63   30   37 am
  64   32   33 1
  65   32  153 1
  66   33   34 1
  67   33  154 1
  68   34  155 1
  69   34  156 1
  70   34  157 1
  71   35   36 2
  72   35   38 1
  73   35   45 am
  74   37   38 1
  75   37  158 1
  76   38   39 1
  77   38  159 1
  78   39   40 1
  79   39  160 1
  80   39  161 1
  81   40   41 1
  82   40   42 1
  83   40  162 1
  84   41  163 1
  85   41  164 1
  86   41  165 1
  87   42  166 1
  88   42  167 1
  89   42  168 1
  90   43   44 2
  91   43   46 1
  92   43   53 am
  93   45   46 1
  94   45  169 1
  95   46   47 1
  96   46  170 1
  97   47   48 1
  98   47  171 1
  99   47  172 1
 100   48   49 2
 101   48   50 1
 102   50  173 1
 103   51   52 2
 104   51   54 1
 105   51   64 am
 106   53   54 1
 107   53  174 1
 108   54   55 1
 109   54  175 1
 110   55   56 1
 111   55  176 1
 112   55  177 1
 113   56   57 ar
 114   56   61 ar
 115   57   58 ar
 116   57  178 1
 117   58   59 ar
 118   58  179 1
 119   59   60 ar
 120   59  180 1
 121   60   61 ar
 122   60  181 1
 123   61  182 1
 124   62   63 2
 125   62   65 1
 126   62   73 am
 127   64   65 1
 128   64  183 1
 129   65   66 1
 130   65  184 1
 131   66   67 1
 132   66  185 1
 133   66  186 1
 134   67   68 1
 135   67  187 1
 136   67  188 1
 137   68   69 1
 138   68  189 1
 139   68  190 1
 140   69   70 1
 141   69  191 1
 142   69  192 1
 143   70  193 1
 144   70  194 1
 145   71   72 2
 146   71   74 1
 147   71   84 am
 148   73   74 1
 149   73  195 1
 150   74   75 1
 151   74  196 1
 152   75   76 1
 153   75  197 1
 154   75  198 1
 155   76   77 1
 156   76  199 1
 157   76  200 1
 158   77   78 1
 159   77  201 1
 160   77  202 1
 161   78   79 1
 162   78  203 1
 163   79   80 2
 164   79   81 1
 165   80  204 1
 166   81  205 1
 167   81  206 1
 168   82   83 2
 169   82   85 1
 170   82   93 am
 171   84   85 1
 172   84  207 1
 173   85   86 1
 174   85  208 1
 175   86   87 1
 176   86  209 1
 177   86  210 1
 178   87   88 1
 179   87  211 1
 180   87  212 1
 181   88   89 1
 182   88  213 1
 183   88  214 1
 184   89   90 1
 185   89  215 1
 186   89  216 1
 187   90  217 1
 188   90  218 1
 189   91   92 2
 190   91   94 1
 191   91   98 am
 192   93   94 1
 193   93  219 1
 194   94   95 1
 195   94  220 1
 196   95  221 1
 197   95  222 1
 198   95  223 1
 199   96   97 2
 200   96   99 1
 201   96  107 1
 202   98   99 1
 203   98  224 1
 204   99  100 1
 205   99  225 1
 206  100  101 1
 207  100  226 1
 208  100  227 1
 209  101  102 1
 210  101  228 1
 211  101  229 1
 212  102  103 1
 213  102  230 1
 214  102  231 1
 215  103  104 1
 216  103  232 1
 217  104  105 2
 218  104  106 1
 219  105  233 1
 220  106  234 1
 221  106  235 1
 222  107  236 1
 223  108  109 2
 224  108  124 1
 225  110  111 1
 226  110  237 1
 227  110  238 1
 228  110  239 1
 229  111  112 1
 230  111  240 1
 231  111  241 1
 232  112  113 1
 233  112  242 1
 234  112  243 1
 235  113  114 1
 236  113  244 1
 237  113  245 1
 238  114  115 1
 239  114  246 1
 240  114  247 1
 241  115  116 1
 242  115  248 1
 243  115  249 1
 244  116  117 1
 245  116  250 1
 246  116  251 1
 247  117  118 1
 248  117  252 1
 249  117  253 1
 250  118  119 1
 251  118  254 1
 252  118  255 1
 253  119  120 1
 254  119  256 1
 255  119  257 1
 256  120  121 1
 257  120  258 1
 258  120  259 1
 259  121  122 1
 260  121  260 1
 261  121  261 1
 262  122  123 1
 263  122  262 1
 264  122  263 1
 265  123  124 1
 266  123  264 1
 267  123  265 1
 268  124  266 1
 269  124  267 1

#	End of record

