#	Name: ASD03910076
#	Creating user name:	WinNT
#	Creation time:	15. 06. 2019 20:47

#	Modifying user name:	WinNT
#	Modification time:	15. 06. 2019 20:47

#	Program:	/corina/corina34_cracker 3.40 0067  02.08.2006

@<TRIPOS>MOLECULE
ASD03910076
  15   15    0    0    0
SMALL
NO_CHARGES


@<TRIPOS>ATOM
   1 C1            -0.0163     1.3487     0.0095 C.2     
   2 C2             0.0021    -0.0041     0.0020 C.2     
   3 O3             1.2728    -0.4238    -0.0124 O.3     
   4 C4             2.0987     0.6443    -0.0145 C.2     
   5 C5             1.3163     1.7818    -0.0009 C.2     
   6 C6             3.5113     0.6051    -0.0278 C.2     
   7 O7             4.0889    -0.4631    -0.0391 O.2     
   8 C8            -1.2132    -0.8952     0.0093 C.3     
   9 O9            -1.6107    -1.1696    -1.3356 O.3     
  10 H10           -0.8943     1.9775     0.0172 H       
  11 H11            1.6632     2.8046     0.0009 H       
  12 H12            4.0771     1.5250    -0.0279 H       
  13 H13           -0.9749    -1.8305     0.5158 H       
  14 H14           -2.0273    -0.3951     0.5339 H       
  15 H15           -2.3889    -1.7392    -1.4073 H       
@<TRIPOS>BOND
   1    1    2 2
   2    1    5 1
   3    1   10 1
   4    2    3 1
   5    2    8 1
   6    3    4 1
   7    4    5 2
   8    4    6 1
   9    5   11 1
  10    6    7 2
  11    6   12 1
  12    8    9 1
  13    8   13 1
  14    8   14 1
  15    9   15 1

#	End of record

