#	Name: ASD03090052
#	Creating user name:	WinNT
#	Creation time:	15. 06. 2019 20:28

#	Modifying user name:	WinNT
#	Modification time:	15. 06. 2019 20:28

#	Program:	/corina/corina34_cracker 3.40 0067  02.08.2006

@<TRIPOS>MOLECULE
ASD03090052
  41   43    0    0    0
SMALL
NO_CHARGES


@<TRIPOS>ATOM
   1 N1            -0.0162     1.3436     0.0094 N.am    
   2 C2            -0.2144     0.1139    -0.5055 C.2     
   3 O3             0.6739    -0.4345    -1.1288 O.2     
   4 N4            -1.3971    -0.5079    -0.3294 N.am    
   5 O5            -0.7223    -2.5022    -1.5655 O.3     
   6 N6            -1.1916    -3.5678    -1.8911 N.2     
   7 C7            -2.4156    -3.7085    -1.4657 C.2     
   8 C8            -2.7354    -2.5275    -0.7663 C.2     
   9 C9            -1.6010    -1.7733    -0.8592 C.2     
  10 C10           -3.3129    -4.9001    -1.6802 C.3     
  11 F11           -2.5954    -5.9144    -2.3233 F       
  12 F12           -3.7727    -5.3661    -0.4438 F       
  13 F13           -4.4035    -4.5260    -2.4725 F       
  14 C14            1.2478     1.9394    -0.0682 C.ar    
  15 C15            1.3619     3.3281    -0.2201 C.ar    
  16 C16            2.6257     3.9132    -0.2961 C.ar    
  17 C17            3.7582     3.1203    -0.2213 C.ar    
  18 C18            3.6387     1.7454    -0.0713 C.ar    
  19 C19            2.3900     1.1585     0.0106 C.ar    
  20 O20           -0.9079     3.9553    -1.1067 O.3     
  21 C21            0.1494     4.1680    -0.2998 C.2     
  22 C22           -0.0936     5.2900     0.4292 C.2     
  23 C23           -1.3600     5.7653     0.0328 C.2     
  24 C24           -1.8223     4.9193    -0.9081 C.2     
  25 O25            4.9907     3.6898    -0.2953 O.3     
  26 C26            6.1164     2.8135    -0.2113 C.3     
  27 C27            7.4066     3.6295    -0.3127 C.3     
  28 H28           -0.7506     1.8172     0.4303 H       
  29 H29           -2.1057    -0.0703     0.1679 H       
  30 H30           -3.6624    -2.2772    -0.2718 H       
  31 H31            2.7207     4.9826    -0.4135 H       
  32 H32            4.5257     1.1320    -0.0139 H       
  33 H33            2.3043     0.0888     0.1321 H       
  34 H34            0.5578     5.7315     1.1688 H       
  35 H35           -1.8641     6.6421     0.4115 H       
  36 H36           -2.7704     5.0026    -1.4187 H       
  37 H37            6.0948     2.2846     0.7416 H       
  38 H38            6.0773     2.0926    -1.0279 H       
  39 H39            8.2652     2.9610    -0.2486 H       
  40 H40            7.4282     4.1583    -1.2655 H       
  41 H41            7.4457     4.3504     0.5039 H       
@<TRIPOS>BOND
   1    1    2 am
   2    1   14 1
   3    1   28 1
   4    2    3 2
   5    2    4 am
   6    4    9 1
   7    4   29 1
   8    5    6 1
   9    5    9 1
  10    6    7 2
  11    7    8 1
  12    7   10 1
  13    8    9 2
  14    8   30 1
  15   10   11 1
  16   10   12 1
  17   10   13 1
  18   14   15 ar
  19   14   19 ar
  20   15   16 ar
  21   15   21 1
  22   16   17 ar
  23   16   31 1
  24   17   18 ar
  25   17   25 1
  26   18   19 ar
  27   18   32 1
  28   19   33 1
  29   20   21 1
  30   20   24 1
  31   21   22 2
  32   22   23 1
  33   22   34 1
  34   23   24 2
  35   23   35 1
  36   24   36 1
  37   25   26 1
  38   26   27 1
  39   26   37 1
  40   26   38 1
  41   27   39 1
  42   27   40 1
  43   27   41 1

#	End of record

