#	Name: ASD08150121
#	Creating user name:	WinNT
#	Creation time:	15. 06. 2019 21:15

#	Modifying user name:	WinNT
#	Modification time:	15. 06. 2019 21:15

#	Program:	/corina/corina34_cracker 3.40 0067  02.08.2006

@<TRIPOS>MOLECULE
ASD08150121
  55   59    0    0    0
SMALL
NO_CHARGES


@<TRIPOS>ATOM
   1 O1            -0.0162     1.3453     0.0094 O.3     
   2 C2             0.0021    -0.0041     0.0020 C.2     
   3 N3             1.1512    -0.5027    -0.4890 N.am    
   4 C4             2.0957     0.6239    -0.6995 C.3     
   5 C5             1.3743     1.7726    -0.0015 C.3     
   6 O6            -0.9181    -0.6930     0.3955 O.2     
   7 C7             2.8766    -3.5049    -1.4008 C.ar    
   8 N8             1.9487    -4.4408    -1.2775 N.ar    
   9 C9             0.7124    -4.1286    -0.8886 C.ar    
  10 C10            0.4059    -2.7968    -0.6116 C.ar    
  11 C11            1.4102    -1.8432    -0.7536 C.ar    
  12 N12            2.6201    -2.2306    -1.1460 N.ar    
  13 C13           -2.1917    -7.0871    -0.5073 C.ar    
  14 N14           -0.9715    -7.4288    -0.8965 N.ar    
  15 C15           -0.0229    -6.5192    -1.0293 C.ar    
  16 C16           -0.3216    -5.1819    -0.7532 C.ar    
  17 C17           -1.6205    -4.8630    -0.3455 C.ar    
  18 N18           -2.5136    -5.8298    -0.2363 N.ar    
  19 N19            4.1506    -3.8683    -1.8014 N.3     
  20 C20            4.2378    -5.3182    -2.0287 C.3     
  21 C21            5.6429    -5.6676    -2.5264 C.3     
  22 O22            6.6077    -5.2096    -1.5752 O.3     
  23 C23            6.5513    -3.8018    -1.3302 C.3     
  24 C24            5.1554    -3.4334    -0.8204 C.3     
  25 N25           -3.1573    -8.0685    -0.3862 N.pl3   
  26 C26            1.3615    -6.9175    -1.4718 C.3     
  27 F27            1.3750    -8.2793    -1.7922 F       
  28 F28            1.7245    -6.1701    -2.5974 F       
  29 F29            2.2704    -6.6730    -0.4367 F       
  30 C30            1.5922     3.1539    -0.5157 C.3     
  31 C31            1.8090     3.2795    -2.0099 C.3     
  32 C32            2.7946     2.2188    -2.4975 C.3     
  33 C33            2.1978     0.8420    -2.2088 C.3     
  34 H34            3.0666     0.4259    -0.2453 H       
  35 H35            1.7090     1.7703     1.0358 H       
  36 H36           -0.5866    -2.5120    -0.2949 H       
  37 H37           -1.8895    -3.8411    -0.1227 H       
  38 H38            4.0407    -5.8455    -1.0953 H       
  39 H39            3.5026    -5.6142    -2.7769 H       
  40 H40            5.7299    -6.7480    -2.6418 H       
  41 H41            5.8199    -5.1829    -3.4865 H       
  42 H42            7.2953    -3.5327    -0.5804 H       
  43 H43            6.7547    -3.2629    -2.2555 H       
  44 H44            5.0900    -2.3537    -0.6866 H       
  45 H45            4.9730    -3.9306     0.1323 H       
  46 H46           -2.9377    -8.9922    -0.5849 H       
  47 H47           -4.0547    -7.8337    -0.1025 H       
  48 H48            0.7258     3.7577    -0.2458 H       
  49 H49            2.4623     3.5719    -0.0095 H       
  50 H50            0.8568     3.1502    -2.5244 H       
  51 H51            2.2050     4.2698    -2.2346 H       
  52 H52            2.9560     2.3321    -3.5695 H       
  53 H53            3.7419     2.3269    -1.9692 H       
  54 H54            2.8361     0.0725    -2.6433 H       
  55 H55            1.2039     0.7783    -2.6518 H       
@<TRIPOS>BOND
   1    1    2 1
   2    1    5 1
   3    2    3 am
   4    2    6 2
   5    3    4 1
   6    3   11 1
   7    4    5 1
   8    4   33 1
   9    4   34 1
  10    5   30 1
  11    5   35 1
  12    7    8 ar
  13    7   12 ar
  14    7   19 1
  15    8    9 ar
  16    9   10 ar
  17    9   16 1
  18   10   11 ar
  19   10   36 1
  20   11   12 ar
  21   13   14 ar
  22   13   18 ar
  23   13   25 1
  24   14   15 ar
  25   15   16 ar
  26   15   26 1
  27   16   17 ar
  28   17   18 ar
  29   17   37 1
  30   19   20 1
  31   19   24 1
  32   20   21 1
  33   20   38 1
  34   20   39 1
  35   21   22 1
  36   21   40 1
  37   21   41 1
  38   22   23 1
  39   23   24 1
  40   23   42 1
  41   23   43 1
  42   24   44 1
  43   24   45 1
  44   25   46 1
  45   25   47 1
  46   26   27 1
  47   26   28 1
  48   26   29 1
  49   30   31 1
  50   30   48 1
  51   30   49 1
  52   31   32 1
  53   31   50 1
  54   31   51 1
  55   32   33 1
  56   32   52 1
  57   32   53 1
  58   33   54 1
  59   33   55 1

#	End of record

