#	Name: ASD00069076
#	Creating user name:	WinNT
#	Creation time:	15. 06. 2019 18:29

#	Modifying user name:	WinNT
#	Modification time:	15. 06. 2019 18:29

#	Program:	/corina/corina34_cracker 3.40 0067  02.08.2006

@<TRIPOS>MOLECULE
ASD00069076
  33   35    0    0    0
SMALL
NO_CHARGES


@<TRIPOS>ATOM
   1 C1            -0.0168     1.3843     0.0097 C.ar    
   2 C2             0.0021    -0.0041     0.0020 C.ar    
   3 C3             1.1895    -0.6825    -0.0129 C.ar    
   4 C4             2.3864     0.0255    -0.0205 C.ar    
   5 C5             2.3760     1.4338    -0.0129 C.ar    
   6 C6             1.1573     2.1042     0.0023 C.ar    
   7 C7             3.8138    -0.3287    -0.0365 C.2     
   8 N8             4.4778     0.8104    -0.0369 N.2     
   9 N9             3.6903     1.8241    -0.0237 N.pl3   
  10 C10            4.3843    -1.6789    -0.0490 C.2     
  11 O11            5.5883    -1.8286    -0.0617 O.2     
  12 C12            4.1385     3.2189    -0.0216 C.3     
  13 O13            5.2008     3.3768     0.9211 O.3     
  14 C14            5.6974     4.7129     1.0222 C.3     
  15 C15            6.2591     5.1509    -0.3329 C.3     
  16 C16            5.1598     5.0367    -1.3936 C.3     
  17 C17            4.6375     3.5969    -1.4187 C.3     
  18 N18           -1.2730    -0.7558     0.0106 N.pl3   
  19 O19           -2.3332    -0.1564     0.0244 O.2     
  20 O20           -1.2620    -1.9737     0.0040 O.2     
  21 H21           -0.9627     1.9054     0.0169 H       
  22 H22            1.1976    -1.7624    -0.0185 H       
  23 H23            1.1319     3.1839     0.0083 H       
  24 H24            3.7330    -2.5404    -0.0468 H       
  25 H25            3.3073     3.8673     0.2554 H       
  26 H26            4.8867     5.3810     1.3128 H       
  27 H27            6.4870     4.7514     1.7726 H       
  28 H28            6.5981     6.1849    -0.2697 H       
  29 H29            7.0962     4.5081    -0.6052 H       
  30 H30            4.3439     5.7163    -1.1477 H       
  31 H31            5.5681     5.2936    -2.3710 H       
  32 H32            5.4419     2.9227    -1.7129 H       
  33 H33            3.8169     3.5195    -2.1319 H       
@<TRIPOS>BOND
   1    1    2 ar
   2    1    6 ar
   3    1   21 1
   4    2    3 ar
   5    2   18 1
   6    3    4 ar
   7    3   22 1
   8    4    5 ar
   9    4    7 1
  10    5    6 ar
  11    5    9 1
  12    6   23 1
  13    7    8 2
  14    7   10 1
  15    8    9 1
  16    9   12 1
  17   10   11 2
  18   10   24 1
  19   12   13 1
  20   12   17 1
  21   12   25 1
  22   13   14 1
  23   14   15 1
  24   14   26 1
  25   14   27 1
  26   15   16 1
  27   15   28 1
  28   15   29 1
  29   16   17 1
  30   16   30 1
  31   16   31 1
  32   17   32 1
  33   17   33 1
  34   18   19 2
  35   18   20 2

#	End of record

