#	Name: ASD01120121
#	Creating user name:	WinNT
#	Creation time:	15. 06. 2019 18:59

#	Modifying user name:	WinNT
#	Modification time:	15. 06. 2019 18:59

#	Program:	/corina/corina34_cracker 3.40 0067  02.08.2006

@<TRIPOS>MOLECULE
ASD01120121
  30   32    0    0    0
SMALL
NO_CHARGES


@<TRIPOS>ATOM
   1 C1            -0.0175     1.2675    -0.6938 C.ar    
   2 C2             1.0898     1.6109    -1.4476 C.ar    
   3 C3             2.2977     0.9773    -1.2316 C.ar    
   4 C4             2.3997    -0.0059    -0.2555 C.ar    
   5 C5             1.2854    -0.3481     0.5003 C.ar    
   6 C6             0.0805     0.2892     0.2788 C.ar    
   7 N7             3.6204    -0.6495    -0.0345 N.pl3   
   8 C8             4.8073     0.0580    -0.1467 C.2     
   9 N9             5.9958    -0.4571    -0.0786 N.2     
  10 C10            7.0231     0.3805    -0.2089 C.2     
  11 C11            6.6927     1.6699    -0.3968 C.2     
  12 S12            4.9352     1.7942    -0.4112 S.3     
  13 C13            8.4326    -0.0771    -0.1503 C.ar    
  14 C14            8.7225    -1.4262     0.0466 C.ar    
  15 C15           10.0360    -1.8463     0.1004 C.ar    
  16 C16           11.0639    -0.9314    -0.0408 C.ar    
  17 C17           10.7821     0.4088    -0.2364 C.ar    
  18 C18            9.4724     0.8395    -0.2976 C.ar    
  19 H19           -0.9599     1.7675    -0.8620 H       
  20 H20            1.0098     2.3753    -2.2064 H       
  21 H21            3.1619     1.2455    -1.8212 H       
  22 H22            1.3612    -1.1123     1.2597 H       
  23 H23           -0.7861     0.0236     0.8660 H       
  24 H24            3.6372    -1.5912     0.1973 H       
  25 H25            7.3857     2.4887    -0.5218 H       
  26 H26            7.9208    -2.1414     0.1573 H       
  27 H27           10.2618    -2.8913     0.2533 H       
  28 H28           12.0903    -1.2645     0.0023 H       
  29 H29           11.5886     1.1187    -0.3459 H       
  30 H30            9.2536     1.8859    -0.4507 H       
@<TRIPOS>BOND
   1    1    2 ar
   2    1    6 ar
   3    1   19 1
   4    2    3 ar
   5    2   20 1
   6    3    4 ar
   7    3   21 1
   8    4    5 ar
   9    4    7 1
  10    5    6 ar
  11    5   22 1
  12    6   23 1
  13    7    8 1
  14    7   24 1
  15    8    9 2
  16    8   12 1
  17    9   10 1
  18   10   11 2
  19   10   13 1
  20   11   12 1
  21   11   25 1
  22   13   14 ar
  23   13   18 ar
  24   14   15 ar
  25   14   26 1
  26   15   16 ar
  27   15   27 1
  28   16   17 ar
  29   16   28 1
  30   17   18 ar
  31   17   29 1
  32   18   30 1

#	End of record

