#	Name: ASD03091453
#	Creating user name:	WinNT
#	Creation time:	15. 06. 2019 20:30

#	Modifying user name:	WinNT
#	Modification time:	15. 06. 2019 20:30

#	Program:	/corina/corina34_cracker 3.40 0067  02.08.2006

@<TRIPOS>MOLECULE
ASD03091453
  39   42    0    0    0
SMALL
NO_CHARGES


@<TRIPOS>ATOM
   1 C1            -0.0188     1.5354     0.0105 C.3     
   2 C2             0.0021    -0.0041     0.0020 C.3     
   3 N3             0.0279    -0.4602     1.4021 N.3     
   4 C4             0.0781     0.7235     2.2834 C.3     
   5 C5            -0.5170     1.8802     1.4507 C.3     
   6 C6             0.2659     3.1734     1.7649 C.3     
   7 N7             1.5706     3.0168     1.1019 N.am    
   8 C8             1.4290     2.0576    -0.0005 C.3     
   9 C9             2.7084     3.6502     1.4495 C.2     
  10 O10            2.7100     4.4286     2.3848 O.2     
  11 O11            4.0764     2.5668    -0.3515 O.3     
  12 C12            3.9448     3.4011     0.7002 C.2     
  13 C13            5.1569     3.9740     0.9475 C.2     
  14 C14            6.0548     3.4502    -0.0100 C.2     
  15 C15            5.3418     2.5878    -0.7875 C.2     
  16 C16            7.4969     3.7773    -0.1434 C.ar    
  17 C17            8.2600     3.1777    -1.1428 C.ar    
  18 C18            9.6002     3.4853    -1.2624 C.ar    
  19 C19           10.1858     4.3871    -0.3923 C.ar    
  20 C20            9.4327     4.9849     0.6021 C.ar    
  21 C21            8.0903     4.6891     0.7266 C.ar    
  22 H22           -0.6324     1.9593    -0.7844 H       
  23 H23           -0.8919    -0.3828    -0.4934 H       
  24 H24            0.8918    -0.3585    -0.5184 H       
  25 H25           -0.7764    -1.0325     1.6108 H       
  26 H26           -0.5221     0.5543     3.1774 H       
  27 H27            1.1093     0.9470     2.5570 H       
  28 H28           -1.5995     1.9734     1.5378 H       
  29 H29           -0.2598     4.0393     1.3624 H       
  30 H30            0.4006     3.2803     2.8412 H       
  31 H31            2.1216     1.2279     0.1411 H       
  32 H32            1.6353     2.5530    -0.9493 H       
  33 H33            5.3863     4.6888     1.7238 H       
  34 H34            5.7323     2.0168    -1.6168 H       
  35 H35            7.8039     2.4732    -1.8225 H       
  36 H36           10.1929     3.0208    -2.0367 H       
  37 H37           11.2347     4.6250    -0.4894 H       
  38 H38            9.8949     5.6881     1.2791 H       
  39 H39            7.5021     5.1601     1.5003 H       
@<TRIPOS>BOND
   1    1    2 1
   2    1    8 1
   3    1    5 1
   4    1   22 1
   5    2    3 1
   6    2   23 1
   7    2   24 1
   8    3    4 1
   9    3   25 1
  10    4    5 1
  11    4   26 1
  12    4   27 1
  13    5    6 1
  14    5   28 1
  15    6    7 1
  16    6   29 1
  17    6   30 1
  18    7    8 1
  19    7    9 am
  20    8   31 1
  21    8   32 1
  22    9   10 2
  23    9   12 1
  24   11   12 1
  25   11   15 1
  26   12   13 2
  27   13   14 1
  28   13   33 1
  29   14   15 2
  30   14   16 1
  31   15   34 1
  32   16   17 ar
  33   16   21 ar
  34   17   18 ar
  35   17   35 1
  36   18   19 ar
  37   18   36 1
  38   19   20 ar
  39   19   37 1
  40   20   21 ar
  41   20   38 1
  42   21   39 1

#	End of record

