#	Name: ASD03330293
#	Creating user name:	WinNT
#	Creation time:	15. 06. 2019 20:37

#	Modifying user name:	WinNT
#	Modification time:	15. 06. 2019 20:37

#	Program:	/corina/corina34_cracker 3.40 0067  02.08.2006

@<TRIPOS>MOLECULE
ASD03330293
  57   59    0    0    0
SMALL
NO_CHARGES


@<TRIPOS>ATOM
   1 C1            -0.9250     1.1184     0.1258 C.3     
   2 N2            -1.0006    -0.3419    -0.0204 N.3     
   3 C3            -0.3406    -0.7884    -1.2606 C.3     
   4 C4             1.0272    -0.1579    -1.3123 C.2     
   5 N5             1.4045     0.8962    -0.5290 N.pl3   
   6 C6             0.5162     1.5357     0.4459 C.3     
   7 C7             2.0895    -0.4816    -2.0884 C.2     
   8 N8             3.1031     0.3689    -1.7743 N.2     
   9 C9             2.6934     1.1961    -0.8375 C.2     
  10 C10            3.4996     2.2721    -0.2237 C.2     
  11 C11            3.5623     2.4703     1.1065 C.2     
  12 C12            2.1378    -1.5598    -3.0911 C.2     
  13 O13            1.1597    -2.2572    -3.2820 O.2     
  14 C14            3.3140    -2.8458    -4.7941 C.3     
  15 N15            3.2659    -1.7736    -3.7970 N.am    
  16 C16            2.7547    -2.3324    -6.1224 C.3     
  17 C17           -2.3938    -0.8046     0.0305 C.3     
  18 C18            3.5476    -1.1022    -6.5683 C.3     
  19 C19            2.8740    -3.4281    -7.1836 C.3     
  20 C20            1.2831    -1.9535    -5.9438 C.3     
  21 S21            4.5805     3.7913     1.4667 S.3     
  22 C22            4.9167     4.0646    -0.2363 C.2     
  23 C23            4.2667     3.1672    -0.9738 C.2     
  24 C24            4.3433     3.1264    -2.4783 C.3     
  25 C25            4.7416    -3.2882    -4.9876 C.2     
  26 O26            5.6524    -2.5673    -4.6389 O.2     
  27 N27            5.0061    -4.4849    -5.5482 N.am    
  28 C28            6.3889    -4.9592    -5.6442 C.3     
  29 H29           -1.2414     1.5924    -0.8034 H       
  30 H30           -1.5823     1.4360     0.9352 H       
  31 H31           -0.2460    -1.8743    -1.2573 H       
  32 H32           -0.9254    -0.4714    -2.1241 H       
  33 H33            0.6101     2.6192     0.3737 H       
  34 H34            0.7788     1.2093     1.4522 H       
  35 H35            3.0408     1.8765     1.8426 H       
  36 H36            2.7157    -3.6893    -4.4497 H       
  37 H37            4.0460    -1.2175    -3.6448 H       
  38 H38           -2.9759    -0.2898    -0.7338 H       
  39 H39           -2.4266    -1.8791    -0.1501 H       
  40 H40           -2.8128    -0.5884     1.0133 H       
  41 H41            4.5959    -1.3721    -6.6955 H       
  42 H42            3.1491    -0.7364    -7.5146 H       
  43 H43            3.4625    -0.3216    -5.8123 H       
  44 H44            2.3055    -4.3030    -6.8681 H       
  45 H45            2.4796    -3.0609    -8.1310 H       
  46 H46            3.9219    -3.7012    -7.3077 H       
  47 H47            1.1981    -1.1729    -5.1878 H       
  48 H48            0.8846    -1.5878    -6.8901 H       
  49 H49            0.7183    -2.8300    -5.6262 H       
  50 H50            5.5577     4.8417    -0.6258 H       
  51 H51            5.1696     2.4842    -2.7828 H       
  52 H52            3.4096     2.7318    -2.8791 H       
  53 H53            4.5059     4.1339    -2.8612 H       
  54 H54            4.2809    -5.0322    -5.8881 H       
  55 H55            6.4047    -5.9385    -6.1227 H       
  56 H56            6.9739    -4.2558    -6.2367 H       
  57 H57            6.8168    -5.0363    -4.6447 H       
@<TRIPOS>BOND
   1    1    2 1
   2    1    6 1
   3    1   29 1
   4    1   30 1
   5    2    3 1
   6    2   17 1
   7    3    4 1
   8    3   31 1
   9    3   32 1
  10    4    5 1
  11    4    7 2
  12    5    6 1
  13    5    9 1
  14    6   33 1
  15    6   34 1
  16    7    8 1
  17    7   12 1
  18    8    9 2
  19    9   10 1
  20   10   11 2
  21   10   23 1
  22   11   21 1
  23   11   35 1
  24   12   13 2
  25   12   15 am
  26   14   15 1
  27   14   25 1
  28   14   16 1
  29   14   36 1
  30   15   37 1
  31   16   18 1
  32   16   19 1
  33   16   20 1
  34   17   38 1
  35   17   39 1
  36   17   40 1
  37   18   41 1
  38   18   42 1
  39   18   43 1
  40   19   44 1
  41   19   45 1
  42   19   46 1
  43   20   47 1
  44   20   48 1
  45   20   49 1
  46   21   22 1
  47   22   23 2
  48   22   50 1
  49   23   24 1
  50   24   51 1
  51   24   52 1
  52   24   53 1
  53   25   26 2
  54   25   27 am
  55   27   28 1
  56   27   54 1
  57   28   55 1
  58   28   56 1
  59   28   57 1

#	End of record

