#	Name: ASD03240791
#	Creating user name:	WinNT
#	Creation time:	15. 06. 2019 20:35

#	Modifying user name:	WinNT
#	Modification time:	15. 06. 2019 20:35

#	Program:	/corina/corina34_cracker 3.40 0067  02.08.2006

@<TRIPOS>MOLECULE
ASD03240791
  78   84    0    0    0
SMALL
NO_CHARGES


@<TRIPOS>ATOM
   1 N1            -0.0213     1.4856     0.0267 N.3     
   2 C2            -0.0051     0.0172     0.0128 C.3     
   3 C3             0.6987    -0.4984     1.2701 C.3     
   4 C4             2.1294     0.0461     1.3079 C.3     
   5 C5             2.0858     1.5763     1.2726 C.3     
   6 C6             1.3418     2.0317     0.0152 C.3     
   7 C7             2.8083    -0.4094     2.5738 C.2     
   8 O8             2.2081    -1.1015     3.3687 O.2     
   9 N9             4.0825    -0.0476     2.8228 N.am    
  10 C10           -0.8096     2.0139    -1.0946 C.3     
  11 C11           -1.0100     3.4965    -0.9132 C.ar    
  12 C12           -0.0909     4.3856    -1.4412 C.ar    
  13 C13           -0.2691     5.7442    -1.2788 C.ar    
  14 C14           -1.3788     6.2205    -0.5806 C.ar    
  15 C15           -2.3019     5.3190    -0.0507 C.ar    
  16 C16           -2.1154     3.9630    -0.2243 C.ar    
  17 C17            0.2992    11.9289     0.2562 C.2     
  18 N18           -0.9150    12.5071     0.2633 N.2     
  19 C19           -2.0142    11.8145     0.1116 C.2     
  20 C20           -1.9222    10.3676    -0.0721 C.ar    
  21 C21           -0.6451     9.7668    -0.0782 C.ar    
  22 N22            0.4592    10.5799     0.0899 N.pl3   
  23 C23           -3.0613     9.5735    -0.2396 C.ar    
  24 C24           -2.8818     8.2041    -0.4075 C.ar    
  25 C25           -1.5758     7.6774    -0.4023 C.ar    
  26 N26           -0.5201     8.4614    -0.2413 N.ar    
  27 N27            1.8309    10.3022     0.1312 N.2     
  28 C28            2.4841    11.4246     0.3140 C.2     
  29 C29            1.5704    12.4673     0.4033 C.2     
  30 C30           -4.0508     7.3105    -0.5892 C.ar    
  31 C31           -5.1284     7.3804     0.2923 C.ar    
  32 C32           -6.2141     6.5464     0.1181 C.ar    
  33 C33           -6.2341     5.6422    -0.9286 C.ar    
  34 C34           -5.1674     5.5682    -1.8062 C.ar    
  35 C35           -4.0791     6.4014    -1.6455 C.ar    
  36 C36            3.9814    11.5605     0.4161 C.3     
  37 C37            4.6764    -0.3752     4.0467 C.ar    
  38 C38            6.0278    -0.6910     4.1021 C.ar    
  39 C39            6.6109    -1.0139     5.3115 C.ar    
  40 C40            5.8507    -1.0231     6.4668 C.ar    
  41 C41            4.5051    -0.7097     6.4150 C.ar    
  42 C42            3.9172    -0.3798     5.2093 C.ar    
  43 C43            8.0770    -1.3571     5.3724 C.3     
  44 O44            8.8359    -0.1670     5.5959 O.3     
  45 H45           -1.0286    -0.3570    -0.0098 H       
  46 H46            0.5287    -0.3318    -0.8711 H       
  47 H47            0.1576    -0.1612     2.1542 H       
  48 H48            0.7244    -1.5879     1.2519 H       
  49 H49            2.6823    -0.3226     0.4439 H       
  50 H50            1.5665     1.9460     2.1568 H       
  51 H51            3.1025     1.9690     1.2562 H       
  52 H52            1.8693     1.6733    -0.8687 H       
  53 H53            1.2966     3.1206    -0.0056 H       
  54 H54            4.5879     0.4399     2.1536 H       
  55 H55           -0.2798     1.8307    -2.0294 H       
  56 H56           -1.7793     1.5170    -1.1231 H       
  57 H57            0.7680     4.0155    -1.9812 H       
  58 H58            0.4492     6.4373    -1.6911 H       
  59 H59           -3.1628     5.6818     0.4912 H       
  60 H60           -2.8315     3.2641     0.1820 H       
  61 H61           -2.9763    12.3051     0.1218 H       
  62 H62           -4.0493    10.0096    -0.2380 H       
  63 H63            1.8066    13.5098     0.5575 H       
  64 H64           -5.1136     8.0854     1.1103 H       
  65 H65           -7.0496     6.5996     0.8004 H       
  66 H66           -7.0857     4.9913    -1.0609 H       
  67 H67           -5.1883     4.8601    -2.6214 H       
  68 H68           -3.2488     6.3458    -2.3339 H       
  69 H69            4.3998    11.7260    -0.5767 H       
  70 H70            4.2265    12.4058     1.0592 H       
  71 H71            4.4010    10.6480     0.8398 H       
  72 H72            6.6219    -0.6843     3.2002 H       
  73 H73            6.3091    -1.2760     7.4114 H       
  74 H74            3.9141    -0.7181     7.3189 H       
  75 H75            2.8672    -0.1301     5.1702 H       
  76 H76            8.2524    -2.0584     6.1882 H       
  77 H77            8.3832    -1.8117     4.4302 H       
  78 H78            9.7905    -0.3130     5.6464 H       
@<TRIPOS>BOND
   1    1    2 1
   2    1    6 1
   3    1   10 1
   4    2    3 1
   5    2   45 1
   6    2   46 1
   7    3    4 1
   8    3   47 1
   9    3   48 1
  10    4    5 1
  11    4    7 1
  12    4   49 1
  13    5    6 1
  14    5   50 1
  15    5   51 1
  16    6   52 1
  17    6   53 1
  18    7    8 2
  19    7    9 am
  20    9   37 1
  21    9   54 1
  22   10   11 1
  23   10   55 1
  24   10   56 1
  25   11   12 ar
  26   11   16 ar
  27   12   13 ar
  28   12   57 1
  29   13   14 ar
  30   13   58 1
  31   14   15 ar
  32   14   25 1
  33   15   16 ar
  34   15   59 1
  35   16   60 1
  36   17   18 1
  37   17   22 1
  38   17   29 2
  39   18   19 2
  40   19   20 1
  41   19   61 1
  42   20   21 ar
  43   20   23 ar
  44   21   22 1
  45   21   26 ar
  46   22   27 1
  47   23   24 ar
  48   23   62 1
  49   24   25 ar
  50   24   30 1
  51   25   26 ar
  52   27   28 2
  53   28   29 1
  54   28   36 1
  55   29   63 1
  56   30   31 ar
  57   30   35 ar
  58   31   32 ar
  59   31   64 1
  60   32   33 ar
  61   32   65 1
  62   33   34 ar
  63   33   66 1
  64   34   35 ar
  65   34   67 1
  66   35   68 1
  67   36   69 1
  68   36   70 1
  69   36   71 1
  70   37   38 ar
  71   37   42 ar
  72   38   39 ar
  73   38   72 1
  74   39   40 ar
  75   39   43 1
  76   40   41 ar
  77   40   73 1
  78   41   42 ar
  79   41   74 1
  80   42   75 1
  81   43   44 1
  82   43   76 1
  83   43   77 1
  84   44   78 1

#	End of record

