#	Name: ASD09740071
#	Creating user name:	WinNT
#	Creation time:	15. 06. 2019 21:22

#	Modifying user name:	WinNT
#	Modification time:	15. 06. 2019 21:22

#	Program:	/corina/corina34_cracker 3.40 0067  02.08.2006

@<TRIPOS>MOLECULE
ASD09740071
  33   35    0    0    0
SMALL
NO_CHARGES


@<TRIPOS>ATOM
   1 O1            -0.0144     1.2085     0.0087 O.3     
   2 N2             0.0021    -0.0041     0.0020 N.2     
   3 C3             1.2410     1.6828    -0.0008 C.2     
   4 N4             2.0455     0.6369    -0.0141 N.2     
   5 C5             1.2349    -0.4419    -0.0121 C.2     
   6 C6             1.6630    -1.8633    -0.0238 C.ar    
   7 C7             1.6453     3.1050     0.0030 C.ar    
   8 C8             3.0160    -2.1949    -0.0385 C.ar    
   9 C9             0.7156    -2.8900    -0.0145 C.ar    
  10 C10            1.1659    -4.1993    -0.0261 C.ar    
  11 C11            2.5262    -4.4464    -0.0464 C.ar    
  12 N12            3.3972    -3.4556    -0.0490 N.ar    
  13 C13            0.6762     4.1080     0.0182 C.ar    
  14 C14            1.0624     5.4380     0.0216 C.ar    
  15 C15            2.4101     5.7701     0.0099 C.ar    
  16 C16            3.3720     4.7767    -0.0056 C.ar    
  17 C17            2.9983     3.4486    -0.0028 C.ar    
  18 C18            2.8266     7.2184     0.0137 C.3     
  19 O19            0.1213     6.4184     0.0359 O.3     
  20 C20           -1.2465     6.0048     0.0468 C.3     
  21 H21            3.7590    -1.4111    -0.0417 H       
  22 H22           -0.3413    -2.6681     0.0017 H       
  23 H23            0.4623    -5.0186    -0.0191 H       
  24 H24            2.8812    -5.4664    -0.0556 H       
  25 H25           -0.3721     3.8482     0.0269 H       
  26 H26            4.4190     5.0413    -0.0149 H       
  27 H27            3.7521     2.6752    -0.0149 H       
  28 H28            2.9372     7.5620     1.0422 H       
  29 H29            3.7771     7.3245    -0.5091 H       
  30 H30            2.0665     7.8163    -0.4893 H       
  31 H31           -1.4541     5.4125    -0.8444 H       
  32 H32           -1.4370     5.4030     0.9355 H       
  33 H33           -1.8917     6.8832     0.0577 H       
@<TRIPOS>BOND
   1    1    2 1
   2    1    3 1
   3    2    5 2
   4    3    4 2
   5    3    7 1
   6    4    5 1
   7    5    6 1
   8    6    8 ar
   9    6    9 ar
  10    7   13 ar
  11    7   17 ar
  12    8   12 ar
  13    8   21 1
  14    9   10 ar
  15    9   22 1
  16   10   11 ar
  17   10   23 1
  18   11   12 ar
  19   11   24 1
  20   13   14 ar
  21   13   25 1
  22   14   15 ar
  23   14   19 1
  24   15   16 ar
  25   15   18 1
  26   16   17 ar
  27   16   26 1
  28   17   27 1
  29   18   28 1
  30   18   29 1
  31   18   30 1
  32   19   20 1
  33   20   31 1
  34   20   32 1
  35   20   33 1

#	End of record

