#	Name: ASD08178226
#	Creating user name:	WinNT
#	Creation time:	15. 06. 2019 21:18

#	Modifying user name:	WinNT
#	Modification time:	15. 06. 2019 21:18

#	Program:	/corina/corina34_cracker 3.40 0067  02.08.2006

@<TRIPOS>MOLECULE
ASD08178226
  56   58    0    0    0
SMALL
NO_CHARGES


@<TRIPOS>ATOM
   1 C1            -0.0191     1.5027     0.0207 C.ar    
   2 C2             0.0010    -0.0042     0.0166 C.3     
   3 C3            -0.8034    -0.5283     1.2078 C.3     
   4 C4            -0.7830    -2.0581     1.2036 C.3     
   5 C5            -1.5874    -2.5822     2.3949 C.3     
   6 C6            -1.5673    -4.0891     2.3907 C.2     
   7 N7            -0.6926    -4.8430     2.9773 N.2     
   8 N8            -0.8493    -6.0898     2.8558 N.2     
   9 C9            -1.8644    -6.5050     2.1598 C.2     
  10 S10           -2.7350    -5.1430     1.5925 S.3     
  11 N11           -2.1931    -7.8348     1.9197 N.am    
  12 C12           -1.4281    -8.8206     2.4289 C.2     
  13 C13           -1.7844   -10.2616     2.1687 C.3     
  14 O14           -0.4530    -8.5481     3.0966 O.2     
  15 C15           -0.7780   -11.1576     2.8435 C.ar    
  16 C16           -0.9904   -11.5805     4.1421 C.ar    
  17 C17           -0.0670   -12.4025     4.7612 C.ar    
  18 C18            1.0682   -12.8017     4.0814 C.ar    
  19 C19            1.2802   -12.3794     2.7821 C.ar    
  20 C20            0.3550   -11.5612     2.1617 C.ar    
  21 C21            1.1728     2.2124     0.0064 C.ar    
  22 C22            1.1067     3.5974     0.0109 C.ar    
  23 C23           -0.1542     4.1903     0.0295 C.ar    
  24 N24           -1.2376     3.4283     0.0422 N.ar    
  25 N25           -1.1697     2.1466     0.0324 N.ar    
  26 N26           -0.2749     5.5795     0.0353 N.am    
  27 C27           -1.4926     6.1505    -0.0517 C.2     
  28 C28           -1.6342     7.6458     0.0713 C.3     
  29 O29           -2.4744     5.4610    -0.2290 O.2     
  30 C30            2.5182   -12.8143     2.0409 C.3     
  31 N31            2.2466   -14.0697     1.3281 N.3     
  32 H32           -0.4409    -0.3709    -0.9099 H       
  33 H33            1.0307    -0.3540     0.0914 H       
  34 H34           -0.3615    -0.1615     2.1343 H       
  35 H35           -1.8331    -0.1785     1.1331 H       
  36 H36           -1.2249    -2.4249     0.2772 H       
  37 H37            0.2467    -2.4079     1.2784 H       
  38 H38           -1.1455    -2.2155     3.3213 H       
  39 H39           -2.6171    -2.2324     2.3201 H       
  40 H40           -2.9730    -8.0528     1.3857 H       
  41 H41           -2.7782   -10.4676     2.5661 H       
  42 H42           -1.7761   -10.4498     1.0951 H       
  43 H43           -1.8774   -11.2685     4.6733 H       
  44 H44           -0.2326   -12.7323     5.7762 H       
  45 H45            1.7898   -13.4432     4.5652 H       
  46 H46            0.5206   -11.2314     1.1467 H       
  47 H47            2.1241     1.7012    -0.0074 H       
  48 H48            2.0044     4.1978     0.0007 H       
  49 H49            0.5176     6.1349     0.1018 H       
  50 H50           -1.0588     8.1313    -0.7169 H       
  51 H51           -2.6848     7.9203    -0.0241 H       
  52 H52           -1.2615     7.9672     1.0438 H       
  53 H53            2.8022   -12.0437     1.3243 H       
  54 H54            3.3313   -12.9680     2.7505 H       
  55 H55            1.4546   -13.9709     0.7107 H       
  56 H56            3.0621   -14.3825     0.8229 H       
@<TRIPOS>BOND
   1    1    2 1
   2    1   21 ar
   3    1   25 ar
   4    2    3 1
   5    2   32 1
   6    2   33 1
   7    3    4 1
   8    3   34 1
   9    3   35 1
  10    4    5 1
  11    4   36 1
  12    4   37 1
  13    5    6 1
  14    5   38 1
  15    5   39 1
  16    6    7 2
  17    6   10 1
  18    7    8 1
  19    8    9 2
  20    9   10 1
  21    9   11 1
  22   11   12 am
  23   11   40 1
  24   12   13 1
  25   12   14 2
  26   13   15 1
  27   13   41 1
  28   13   42 1
  29   15   16 ar
  30   15   20 ar
  31   16   17 ar
  32   16   43 1
  33   17   18 ar
  34   17   44 1
  35   18   19 ar
  36   18   45 1
  37   19   20 ar
  38   19   30 1
  39   20   46 1
  40   21   22 ar
  41   21   47 1
  42   22   23 ar
  43   22   48 1
  44   23   24 ar
  45   23   26 1
  46   24   25 ar
  47   26   27 am
  48   26   49 1
  49   27   28 1
  50   27   29 2
  51   28   50 1
  52   28   51 1
  53   28   52 1
  54   30   31 1
  55   30   53 1
  56   30   54 1
  57   31   55 1
  58   31   56 1

#	End of record

