#	Name: ASD03082222
#	Creating user name:	WinNT
#	Creation time:	15. 06. 2019 20:27

#	Modifying user name:	WinNT
#	Modification time:	15. 06. 2019 20:27

#	Program:	/corina/corina34_cracker 3.40 0067  02.08.2006

@<TRIPOS>MOLECULE
ASD03082222
  42   44    0    0    0
SMALL
NO_CHARGES


@<TRIPOS>ATOM
   1 N1             0.1722     1.4130    -0.5519 N.am    
   2 N2             0.0605     0.0218    -0.3956 N.2     
   3 C3             1.1292    -0.3788     0.2517 C.2     
   4 N4             1.9077     0.6749     0.5131 N.2     
   5 C5             1.3510     1.7690     0.0375 C.2     
   6 N6             1.4080    -1.6966     0.6110 N.pl3   
   7 C7             0.4578    -2.6985     0.3872 C.ar    
   8 C8             0.8627    -4.0174     0.2250 C.ar    
   9 C9            -0.0771    -5.0049     0.0047 C.ar    
  10 C10           -1.4223    -4.6811    -0.0550 C.ar    
  11 C11           -1.8281    -3.3672     0.1060 C.ar    
  12 C12           -0.8920    -2.3771     0.3327 C.ar    
  13 C13            0.3615    -6.4358    -0.1715 C.3     
  14 F14            1.7549    -6.5121    -0.0720 F       
  15 F15           -0.2212    -7.2280     0.8236 F       
  16 F16           -0.0420    -6.8958    -1.4296 F       
  17 N17            3.7656     4.5795     0.0548 N.ar    
  18 C18            3.2733     3.3607    -0.0229 C.ar    
  19 C19            1.9037     3.1378     0.1252 C.ar    
  20 C20            1.0621     4.2314     0.3577 C.ar    
  21 C21            1.6293     5.4918     0.4307 C.ar    
  22 C22            2.9964     5.6291     0.2730 C.ar    
  23 C23           -0.7053     2.2314    -1.1656 C.2     
  24 N24           -1.7943     1.7188    -1.7720 N.am    
  25 F25           -2.3400    -5.6488    -0.2711 F       
  26 C26           -2.7481     2.6085    -2.4391 C.3     
  27 O27           -0.5146     3.4315    -1.1722 O.2     
  28 C28            3.6177     6.9997     0.3523 C.3     
  29 H29            2.2609    -1.9188     1.0161 H       
  30 H30            1.9117    -4.2702     0.2707 H       
  31 H31           -2.8776    -3.1169     0.0584 H       
  32 H32           -1.2094    -1.3530     0.4630 H       
  33 H33            3.9352     2.5264    -0.2028 H       
  34 H34           -0.0027     4.0955     0.4768 H       
  35 H35            1.0107     6.3591     0.6085 H       
  36 H36           -1.9465     0.7609    -1.7668 H       
  37 H37           -3.1572     3.3120    -1.7140 H       
  38 H38           -2.2396     3.1578    -3.2314 H       
  39 H39           -3.5572     2.0175    -2.8683 H       
  40 H40            3.6394     7.4469    -0.6416 H       
  41 H41            3.0284     7.6277     1.0205 H       
  42 H42            4.6348     6.9160     0.7352 H       
@<TRIPOS>BOND
   1    1    2 1
   2    1    5 1
   3    1   23 am
   4    2    3 2
   5    3    4 1
   6    3    6 1
   7    4    5 2
   8    5   19 1
   9    6    7 1
  10    6   29 1
  11    7    8 ar
  12    7   12 ar
  13    8    9 ar
  14    8   30 1
  15    9   10 ar
  16    9   13 1
  17   10   11 ar
  18   10   25 1
  19   11   12 ar
  20   11   31 1
  21   12   32 1
  22   13   14 1
  23   13   15 1
  24   13   16 1
  25   17   18 ar
  26   17   22 ar
  27   18   19 ar
  28   18   33 1
  29   19   20 ar
  30   20   21 ar
  31   20   34 1
  32   21   22 ar
  33   21   35 1
  34   22   28 1
  35   23   24 am
  36   23   27 2
  37   24   26 1
  38   24   36 1
  39   26   37 1
  40   26   38 1
  41   26   39 1
  42   28   40 1
  43   28   41 1
  44   28   42 1

#	End of record

