#	Name: ASD01916096
#	Creating user name:	WinNT
#	Creation time:	15. 06. 2019 20:06

#	Modifying user name:	WinNT
#	Modification time:	15. 06. 2019 20:06

#	Program:	/corina/corina34_cracker 3.40 0067  02.08.2006

@<TRIPOS>MOLECULE
ASD01916096
  39   41    0    0    0
SMALL
NO_CHARGES


@<TRIPOS>ATOM
   1 C1            -0.0170     1.3991     0.0096 C.ar    
   2 C2             0.0021    -0.0041     0.0081 C.ar    
   3 C3            -1.2033    -0.6759     0.0155 C.ar    
   4 C4            -2.3890     0.0534     0.0242 C.ar    
   5 N5            -3.6085    -0.6194     0.0322 N.am    
   6 C6             1.2068     2.1427     0.0016 C.1     
   7 C7             2.2101     2.7523    -0.0050 C.1     
   8 C8             3.4339     3.4959    -0.0130 C.ar    
   9 C9             3.4065     4.8930    -0.0114 C.ar    
  10 C10            4.5892     5.6025    -0.0192 C.ar    
  11 N11           -2.3743     1.3776     0.0254 N.ar    
  12 C12           -1.2474     2.0592     0.0131 C.ar    
  13 C13            4.6613     2.8279    -0.0166 C.ar    
  14 C14            5.8009     4.9341    -0.0290 C.ar    
  15 N15           -3.7216    -1.9744    -0.0668 N.3     
  16 C16           -5.0681    -2.3545     0.4202 C.3     
  17 C17           -5.8804    -1.0648     0.1498 C.3     
  18 C18           -4.7983    -0.0003     0.1443 C.2     
  19 C19           -5.6276    -3.5315    -0.3814 C.3     
  20 C20            5.8359     3.5507    -0.0243 C.ar    
  21 O21           -4.9751     1.1972     0.2199 O.2     
  22 C22           -5.0377    -2.6786     1.9151 C.3     
  23 H23            0.9370    -0.5448     0.0009 H       
  24 H24           -1.2265    -1.7557     0.0143 H       
  25 H25            2.4616     5.4160    -0.0045 H       
  26 H26            4.5697     6.6823    -0.0180 H       
  27 H27           -1.2752     3.1388     0.0145 H       
  28 H28            4.6901     1.7483    -0.0130 H       
  29 H29            6.7239     5.4949    -0.0358 H       
  30 H30           -3.5815    -2.2804    -1.0180 H       
  31 H31           -6.3826    -1.1180    -0.8161 H       
  32 H32           -6.5963    -0.8821     0.9511 H       
  33 H33           -4.9769    -4.3972    -0.2579 H       
  34 H34           -6.6273    -3.7740    -0.0210 H       
  35 H35           -5.6772    -3.2618    -1.4363 H       
  36 H36            6.7852     3.0358    -0.0271 H       
  37 H37           -4.6745    -1.8119     2.4675 H       
  38 H38           -6.0432    -2.9295     2.2530 H       
  39 H39           -4.3738    -3.5252     2.0900 H       
@<TRIPOS>BOND
   1    1    2 ar
   2    1    6 1
   3    1   12 ar
   4    2    3 ar
   5    2   23 1
   6    3    4 ar
   7    3   24 1
   8    4   11 ar
   9    4    5 1
  10    5   15 1
  11    5   18 am
  12    6    7 3
  13    7    8 1
  14    8    9 ar
  15    8   13 ar
  16    9   10 ar
  17    9   25 1
  18   10   14 ar
  19   10   26 1
  20   11   12 ar
  21   12   27 1
  22   13   20 ar
  23   13   28 1
  24   14   20 ar
  25   14   29 1
  26   15   16 1
  27   15   30 1
  28   16   17 1
  29   16   19 1
  30   16   22 1
  31   17   18 1
  32   17   31 1
  33   17   32 1
  34   18   21 2
  35   19   33 1
  36   19   34 1
  37   19   35 1
  38   20   36 1
  39   22   37 1
  40   22   38 1
  41   22   39 1

#	End of record

