#	Name: ASD00170274
#	Creating user name:	WinNT
#	Creation time:	15. 06. 2019 18:31

#	Modifying user name:	WinNT
#	Modification time:	15. 06. 2019 18:31

#	Program:	/corina/corina34_cracker 3.40 0067  02.08.2006

@<TRIPOS>MOLECULE
ASD00170274
  33   36    0    0    0
SMALL
NO_CHARGES


@<TRIPOS>ATOM
   1 C1            -0.0238     1.3608     0.0064 C.2     
   2 C2             0.0002    -0.0070     0.0012 C.2     
   3 C3            -1.3322    -0.6061     0.0151 C.2     
   4 C4            -2.2991     0.3055     0.0302 C.2     
   5 S5            -1.6246     1.9348     0.0342 S.3     
   6 C6             1.2368    -0.7915    -0.0171 C.2     
   7 C7             1.7837    -1.2726    -1.2949 C.2     
   8 O8             1.1875    -1.1314    -2.4968 O.3     
   9 C9             1.9393    -1.6775    -3.4726 C.ar    
  10 C10            3.0964    -2.2075    -2.8720 C.ar    
  11 C11            2.9680    -1.9211    -1.4435 C.2     
  12 O12            1.8127    -1.0456     1.0265 O.2     
  13 N13            1.0983     2.1655    -0.0035 N.pl3   
  14 C14            1.7760    -1.7943    -4.8481 C.ar    
  15 C15            2.7425    -2.4233    -5.6028 C.ar    
  16 C16            3.8821    -2.9443    -5.0051 C.ar    
  17 C17            4.0648    -2.8405    -3.6551 C.ar    
  18 C18           -1.9302    -2.0103     0.0166 C.3     
  19 C19           -3.3878    -1.8202     0.4821 C.3     
  20 C20           -3.6662    -0.3682     0.0443 C.3     
  21 H21            3.6695    -2.1791    -0.6639 H       
  22 H22            1.9808     1.7678     0.0587 H       
  23 H23            1.0040     3.1284    -0.0727 H       
  24 H24            0.8935    -1.3932    -5.3243 H       
  25 H25            2.6117    -2.5122    -6.6711 H       
  26 H26            4.6295    -3.4344    -5.6114 H       
  27 H27            4.9531    -3.2475    -3.1951 H       
  28 H28           -1.9051    -2.4342    -0.9872 H       
  29 H29           -1.3903    -2.6515     0.7134 H       
  30 H30           -4.0543    -2.5164    -0.0270 H       
  31 H31           -3.4691    -1.9244     1.5640 H       
  32 H32           -4.3242     0.1242     0.7603 H       
  33 H33           -4.1079    -0.3506    -0.9521 H       
@<TRIPOS>BOND
   1    1    2 2
   2    1   13 1
   3    1    5 1
   4    2    3 1
   5    2    6 1
   6    3    4 2
   7    3   18 1
   8    4    5 1
   9    4   20 1
  10    6    7 1
  11    6   12 2
  12    7    8 1
  13    7   11 2
  14    8    9 1
  15    9   10 ar
  16    9   14 ar
  17   10   11 1
  18   10   17 ar
  19   11   21 1
  20   13   22 1
  21   13   23 1
  22   14   15 ar
  23   14   24 1
  24   15   16 ar
  25   15   25 1
  26   16   17 ar
  27   16   26 1
  28   17   27 1
  29   18   19 1
  30   18   28 1
  31   18   29 1
  32   19   20 1
  33   19   30 1
  34   19   31 1
  35   20   32 1
  36   20   33 1

#	End of record

