#	Name: ASD03240298
#	Creating user name:	WinNT
#	Creation time:	15. 06. 2019 20:34

#	Modifying user name:	WinNT
#	Modification time:	15. 06. 2019 20:34

#	Program:	/corina/corina34_cracker 3.40 0067  02.08.2006

@<TRIPOS>MOLECULE
ASD03240298
  89   93    0    0    0
SMALL
NO_CHARGES


@<TRIPOS>ATOM
   1 C1            -0.3044     1.1036    -1.5122 C.2     
   2 N2            -0.1749    -0.1628    -0.9931 N.pl3   
   3 O3            -3.6651     3.2296    -1.1194 O.2     
   4 C4            -3.7598     2.1422    -0.5908 C.2     
   5 C5            -2.5975     1.1835    -0.6259 C.3     
   6 N6            -1.4814     1.7956    -1.3509 N.pl3   
   7 N7             0.6905     1.6503    -2.1527 N.2     
   8 N8            -4.9045     1.7911     0.0280 N.am    
   9 C9            -5.9376     2.7160     0.1585 C.ar    
  10 C10           -7.2717     2.2887     0.1042 C.ar    
  11 C11           -8.2989     3.2135     0.2347 C.ar    
  12 C12           -7.9973     4.5636     0.4192 C.ar    
  13 C13           -6.6638     4.9805     0.4720 C.ar    
  14 C14           -5.6456     4.0612     0.3482 C.ar    
  15 C15           -9.0855     5.5510     0.5579 C.2     
  16 N16           -8.7939     6.8547     0.7361 N.am    
  17 O17          -10.2452     5.1882     0.5115 O.2     
  18 C18           -9.8209     7.8073     0.7450 C.ar    
  19 C19           -9.6532     9.0026     1.4317 C.ar    
  20 C20          -11.0044     7.5586     0.0624 C.ar    
  21 C21          -12.0167     8.4974     0.0711 C.ar    
  22 C22          -11.8513     9.6905     0.7626 C.ar    
  23 C23          -10.6654     9.9415     1.4405 C.ar    
  24 N24          -12.8768    10.6420     0.7711 N.pl3   
  25 C25          -12.7023    11.9005     1.5005 C.3     
  26 C26          -14.1252    10.3800     0.0506 C.3     
  27 C27           -7.5850     0.8523    -0.0926 C.ar    
  28 C28           -8.4870     0.2107     0.7543 C.ar    
  29 C29           -8.7751    -1.1258     0.5662 C.ar    
  30 C30           -8.1705    -1.8285    -0.4605 C.ar    
  31 C31           -7.2742    -1.1970    -1.3038 C.ar    
  32 C32           -6.9829     0.1407    -1.1286 C.ar    
  33 C33          -15.1003     9.6902     0.9695 C.ar    
  34 C34          -12.0955    12.9320     0.5846 C.ar    
  35 C35          -15.9712    10.4415     1.7386 C.ar    
  36 C36          -16.8667     9.8165     2.5816 C.ar    
  37 C37          -16.8928     8.4225     2.6576 C.ar    
  38 C38          -16.0110     7.6706     1.8786 C.ar    
  39 C39          -15.1243     8.3084     1.0360 C.ar    
  40 C40          -12.9165    13.7506    -0.1705 C.ar    
  41 C41          -12.3677    14.6972    -1.0106 C.ar    
  42 C42          -10.9803    14.8281    -1.0979 C.ar    
  43 C43          -10.1577    13.9986    -0.3330 C.ar    
  44 C44          -10.7200    13.0598     0.5069 C.ar    
  45 C45           -8.4892    -3.2878    -0.6608 C.3     
  46 C46           -9.0840    -3.4931    -2.0554 C.3     
  47 C47           -7.2077    -4.1128    -0.5264 C.3     
  48 C48          -17.8193     7.7671     3.5308 C.1     
  49 N49          -18.5544     7.2471     4.2235 N.1     
  50 C50          -10.4037    15.8082    -1.9682 C.1     
  51 N51           -9.9462    16.5858    -2.6586 N.1     
  52 H52            0.6569    -0.6495    -1.1034 H       
  53 H53           -0.9153    -0.5697    -0.5164 H       
  54 H54           -2.2861     0.9527     0.3929 H       
  55 H55           -2.8988     0.2656    -1.1305 H       
  56 H56           -1.5727     2.6892    -1.7172 H       
  57 H57            1.5223     1.1636    -2.2630 H       
  58 H58           -5.0088     0.8942     0.3825 H       
  59 H59           -9.3282     2.8893     0.1932 H       
  60 H60           -6.4315     6.0255     0.6148 H       
  61 H61           -4.6171     4.3881     0.3896 H       
  62 H62           -7.8728     7.1334     0.8581 H       
  63 H63           -8.7312     9.1976     1.9591 H       
  64 H64          -11.1328     6.6310    -0.4756 H       
  65 H65          -12.9370     8.3041    -0.4601 H       
  66 H66          -10.5368    10.8690     1.9786 H       
  67 H67          -13.6714    12.2532     1.8534 H       
  68 H68          -12.0424    11.7381     2.3526 H       
  69 H69          -14.5524    11.3228    -0.2909 H       
  70 H70          -13.9215     9.7411    -0.8087 H       
  71 H71           -8.9593     0.7583     1.5564 H       
  72 H72           -9.4736    -1.6241     1.2221 H       
  73 H73           -6.8048    -1.7505    -2.1036 H       
  74 H74           -6.2829     0.6328    -1.7876 H       
  75 H75          -15.9497    11.5196     1.6791 H       
  76 H76          -17.5457    10.4041     3.1816 H       
  77 H77          -16.0257     6.5920     1.9329 H       
  78 H78          -14.4418     7.7280     0.4329 H       
  79 H79          -13.9895    13.6481    -0.1023 H       
  80 H80          -13.0097    15.3354    -1.5997 H       
  81 H81           -9.0838    14.0943    -0.3961 H       
  82 H82          -10.0849    12.4176     1.0991 H       
  83 H83           -9.2088    -3.6092     0.0921 H       
  84 H84           -8.3644    -3.1718    -2.8083 H       
  85 H85           -9.3145    -4.5486    -2.2002 H       
  86 H86           -9.9970    -2.9054    -2.1511 H       
  87 H87           -6.7839    -3.9665     0.4671 H       
  88 H88           -7.4382    -5.1682    -0.6712 H       
  89 H89           -6.4880    -3.7914    -1.2793 H       
@<TRIPOS>BOND
   1    1    2 1
   2    1    7 2
   3    1    6 1
   4    2   52 1
   5    2   53 1
   6    3    4 2
   7    4    5 1
   8    4    8 am
   9    5    6 1
  10    5   54 1
  11    5   55 1
  12    6   56 1
  13    7   57 1
  14    8    9 1
  15    8   58 1
  16    9   10 ar
  17    9   14 ar
  18   10   11 ar
  19   10   27 1
  20   11   12 ar
  21   11   59 1
  22   12   13 ar
  23   12   15 1
  24   13   14 ar
  25   13   60 1
  26   14   61 1
  27   15   16 am
  28   15   17 2
  29   16   18 1
  30   16   62 1
  31   18   19 ar
  32   18   20 ar
  33   19   23 ar
  34   19   63 1
  35   20   21 ar
  36   20   64 1
  37   21   22 ar
  38   21   65 1
  39   22   23 ar
  40   22   24 1
  41   23   66 1
  42   24   25 1
  43   24   26 1
  44   25   34 1
  45   25   67 1
  46   25   68 1
  47   26   33 1
  48   26   69 1
  49   26   70 1
  50   27   28 ar
  51   27   32 ar
  52   28   29 ar
  53   28   71 1
  54   29   30 ar
  55   29   72 1
  56   30   31 ar
  57   30   45 1
  58   31   32 ar
  59   31   73 1
  60   32   74 1
  61   33   35 ar
  62   33   39 ar
  63   34   40 ar
  64   34   44 ar
  65   35   36 ar
  66   35   75 1
  67   36   37 ar
  68   36   76 1
  69   37   38 ar
  70   37   48 1
  71   38   39 ar
  72   38   77 1
  73   39   78 1
  74   40   41 ar
  75   40   79 1
  76   41   42 ar
  77   41   80 1
  78   42   43 ar
  79   42   50 1
  80   43   44 ar
  81   43   81 1
  82   44   82 1
  83   45   46 1
  84   45   47 1
  85   45   83 1
  86   46   84 1
  87   46   85 1
  88   46   86 1
  89   47   87 1
  90   47   88 1
  91   47   89 1
  92   48   49 3
  93   50   51 3

#	End of record

