#	Name: ASD00311343
#	Creating user name:	WinNT
#	Creation time:	15. 06. 2019 18:34

#	Modifying user name:	WinNT
#	Modification time:	15. 06. 2019 18:34

#	Program:	/corina/corina34_cracker 3.40 0067  02.08.2006

@<TRIPOS>MOLECULE
ASD00311343
  36   39    0    0    0
SMALL
NO_CHARGES


@<TRIPOS>ATOM
   1 C1            -0.0167     1.3780     0.0096 C.2     
   2 C2             0.0021    -0.0041     0.0020 C.2     
   3 C3             1.2589    -0.6766    -0.0136 C.2     
   4 C4             2.4315     0.0675    -0.0208 C.2     
   5 C5             2.3574     1.4754    -0.0125 C.2     
   6 N6             1.1649     2.0906     0.0022 N.am    
   7 C7            -1.3431    -0.5749     0.0118 C.2     
   8 C8            -2.3222     0.3255     0.0260 C.2     
   9 S9            -1.6795     1.9560     0.0358 S.3     
  10 O10            3.3823     2.1375    -0.0187 O.2     
  11 C11            3.7477    -0.6117    -0.0365 C.ar    
  12 C12            4.5935    -0.4743    -1.1370 C.ar    
  13 C13            5.8185    -1.1091    -1.1455 C.ar    
  14 C14            6.2085    -1.8807    -0.0654 C.ar    
  15 C15            5.3738    -2.0212     1.0289 C.ar    
  16 C16            4.1487    -1.3866     1.0516 C.ar    
  17 O17            1.3089    -2.0290    -0.0209 O.3     
  18 C18           -1.5955    -2.0355     0.0059 C.ar    
  19 C19           -1.7266    -2.7194    -1.2038 C.ar    
  20 C20           -1.9615    -4.0816    -1.2020 C.ar    
  21 C21           -2.0667    -4.7669    -0.0052 C.ar    
  22 C22           -1.9382    -4.0954     1.1972 C.ar    
  23 C23           -1.6975    -2.7342     1.2099 C.ar    
  24 F24           -1.5663    -2.0808     2.3850 F       
  25 F25           -1.6246    -2.0515    -2.3737 F       
  26 H26            1.1327     3.0601     0.0073 H       
  27 H27           -3.3747     0.0836     0.0344 H       
  28 H28            4.2900     0.1275    -1.9809 H       
  29 H29            6.4742    -1.0037    -1.9972 H       
  30 H30            7.1684    -2.3756    -0.0767 H       
  31 H31            5.6836    -2.6251     1.8689 H       
  32 H32            3.5000    -1.4932     1.9085 H       
  33 H33            2.2062    -2.3893    -0.0314 H       
  34 H34           -2.0635    -4.6120    -2.1373 H       
  35 H35           -2.2502    -5.8312    -0.0095 H       
  36 H36           -2.0218    -4.6364     2.1281 H       
@<TRIPOS>BOND
   1    1    2 2
   2    1    6 1
   3    1    9 1
   4    2    3 1
   5    2    7 1
   6    3    4 2
   7    3   17 1
   8    4    5 1
   9    4   11 1
  10    5    6 am
  11    5   10 2
  12    6   26 1
  13    7    8 2
  14    7   18 1
  15    8    9 1
  16    8   27 1
  17   11   12 ar
  18   11   16 ar
  19   12   13 ar
  20   12   28 1
  21   13   14 ar
  22   13   29 1
  23   14   15 ar
  24   14   30 1
  25   15   16 ar
  26   15   31 1
  27   16   32 1
  28   17   33 1
  29   18   19 ar
  30   18   23 ar
  31   19   20 ar
  32   19   25 1
  33   20   21 ar
  34   20   34 1
  35   21   22 ar
  36   21   35 1
  37   22   23 ar
  38   22   36 1
  39   23   24 1

#	End of record

