#	Name: ASD03331644
#	Creating user name:	WinNT
#	Creation time:	15. 06. 2019 20:39

#	Modifying user name:	WinNT
#	Modification time:	15. 06. 2019 20:39

#	Program:	/corina/corina34_cracker 3.40 0067  02.08.2006

@<TRIPOS>MOLECULE
ASD03331644
  58   61    0    0    0
SMALL
NO_CHARGES


@<TRIPOS>ATOM
   1 C1             2.2426     0.2542    -0.4889 C.ar    
   2 C2             1.2972    -0.5160     0.1281 C.ar    
   3 C3             0.5172     0.0086     1.1492 C.ar    
   4 C4             0.6809     1.3139     1.5589 C.ar    
   5 C5             2.4257     1.5791    -0.0895 C.ar    
   6 C6             3.3195     2.6577    -0.5182 C.2     
   7 C7             1.6371     2.1159     0.9449 C.ar    
   8 N8             2.0328     3.4229     1.1207 N.pl3   
   9 C9             3.0358     3.7276     0.2412 C.2     
  10 S10            3.8358     5.2930     0.1222 S.o2    
  11 O11            3.2094     6.1374     1.0782 O.2     
  12 O12            5.2323     5.0304     0.1141 O.2     
  13 N13            3.4690     5.9192    -1.3663 N.am    
  14 C14            2.0862     6.2799    -1.6887 C.3     
  15 C15            2.0688     7.1758    -2.9289 C.3     
  16 C16            0.6463     7.5468    -3.2606 C.ar    
  17 C17           -1.4003     7.0813    -4.4131 C.ar    
  18 C18           -0.0965     6.7442    -4.1070 C.ar    
  19 C19            0.0850     8.6860    -2.7134 C.ar    
  20 C20           -1.2184     9.0287    -3.0149 C.ar    
  21 C21           -1.9656     8.2278    -3.8693 C.ar    
  22 N22           -3.2839     8.5717    -4.1767 N.3     
  23 C23            4.3601     2.5806    -1.6055 C.3     
  24 C24           -5.6126     7.8278    -4.3323 C.3     
  25 C25           -4.2038     7.4746    -3.8501 C.3     
  26 C26           -3.6760     9.8133    -3.4977 C.3     
  27 C27           -5.0690    10.2363    -3.9693 C.3     
  28 C28           -6.0700     9.1216    -3.6529 C.3     
  29 C29            3.7025     2.8492    -2.9607 C.3     
  30 H30            2.8490    -0.1621    -1.2798 H       
  31 H31            1.1557    -1.5409    -0.1816 H       
  32 H32           -0.2259    -0.6125     1.6272 H       
  33 H33            0.0685     1.7132     2.3539 H       
  34 H34            1.6567     4.0363     1.7712 H       
  35 H35            4.1698     6.0471    -2.0247 H       
  36 H36            1.5113     5.3751    -1.8860 H       
  37 H37            1.6447     6.8148    -0.8479 H       
  38 H38            2.6437     8.0805    -2.7316 H       
  39 H39            2.5103     6.6409    -3.7698 H       
  40 H40           -1.9800     6.4539    -5.0739 H       
  41 H41            0.3436     5.8530    -4.5294 H       
  42 H42            0.6665     9.3083    -2.0493 H       
  43 H43           -1.6564     9.9182    -2.5867 H       
  44 H44            5.1329     3.3271    -1.4224 H       
  45 H45            4.8083     1.5871    -1.6097 H       
  46 H46           -5.6028     7.9681    -5.4132 H       
  47 H47           -6.2982     7.0201    -4.0758 H       
  48 H48           -3.8696     6.5616    -4.3428 H       
  49 H49           -4.2171     7.3209    -2.7711 H       
  50 H50           -3.6918     9.6486    -2.4203 H       
  51 H51           -2.9583    10.5989    -3.7343 H       
  52 H52           -5.3662    11.1494    -3.4535 H       
  53 H53           -5.0507    10.4145    -5.0445 H       
  54 H54           -7.0555     9.4002    -4.0261 H       
  55 H55           -6.1173     8.9697    -2.5746 H       
  56 H56            4.4552     2.7934    -3.7471 H       
  57 H57            2.9297     2.1027    -3.1438 H       
  58 H58            3.2543     3.8427    -2.9565 H       
@<TRIPOS>BOND
   1    1    2 ar
   2    1    5 ar
   3    1   30 1
   4    2    3 ar
   5    2   31 1
   6    3    4 ar
   7    3   32 1
   8    4    7 ar
   9    4   33 1
  10    5    7 ar
  11    5    6 1
  12    6    9 2
  13    6   23 1
  14    7    8 1
  15    8    9 1
  16    8   34 1
  17    9   10 1
  18   10   11 2
  19   10   12 2
  20   10   13 am
  21   13   14 1
  22   13   35 1
  23   14   15 1
  24   14   36 1
  25   14   37 1
  26   15   16 1
  27   15   38 1
  28   15   39 1
  29   16   19 ar
  30   16   18 ar
  31   17   18 ar
  32   17   21 ar
  33   17   40 1
  34   18   41 1
  35   19   20 ar
  36   19   42 1
  37   20   21 ar
  38   20   43 1
  39   21   22 1
  40   22   26 1
  41   22   25 1
  42   23   29 1
  43   23   44 1
  44   23   45 1
  45   24   25 1
  46   24   28 1
  47   24   46 1
  48   24   47 1
  49   25   48 1
  50   25   49 1
  51   26   27 1
  52   26   50 1
  53   26   51 1
  54   27   28 1
  55   27   52 1
  56   27   53 1
  57   28   54 1
  58   28   55 1
  59   29   56 1
  60   29   57 1
  61   29   58 1

#	End of record

