#	Name: ASD01900900
#	Creating user name:	WinNT
#	Creation time:	15. 06. 2019 19:52

#	Modifying user name:	WinNT
#	Modification time:	15. 06. 2019 19:52

#	Program:	/corina/corina34_cracker 3.40 0067  02.08.2006

@<TRIPOS>MOLECULE
ASD01900900
  49   51    0    0    0
SMALL
NO_CHARGES


@<TRIPOS>ATOM
   1 C1            -0.4547     1.7901    -0.9298 C.ar    
   2 C2            -1.4997     2.5091    -1.4777 C.ar    
   3 C3            -2.6685     1.8647    -1.8390 C.ar    
   4 C4            -2.7929     0.5008    -1.6526 C.ar    
   5 C5            -1.7488    -0.2206    -1.1051 C.ar    
   6 C6            -0.5759     0.4226    -0.7483 C.ar    
   7 F7             0.4455    -0.2816    -0.2135 F       
   8 C8             0.8188     2.4928    -0.5356 C.3     
   9 S9             1.0124     3.9970    -1.5308 S.o2    
  10 C10            2.5892     4.6316    -1.0664 C.2     
  11 O11            1.1576     3.6697    -2.9060 O.2     
  12 O12            0.0944     4.9960    -1.1085 O.2     
  13 C13            3.7682     4.2280    -1.5440 C.2     
  14 N14            4.8106     4.8599    -1.0381 N.2     
  15 C15            4.5686     5.7783    -0.1556 C.2     
  16 S16            2.8843     5.9148     0.1040 S.3     
  17 N17            5.5363     6.5437     0.4819 N.am    
  18 C18            5.1718     7.4743     1.3861 C.2     
  19 O19            3.9962     7.6436     1.6436 O.2     
  20 C20            6.2039     8.2905     2.0660 C.ar    
  21 N21            7.4862     8.1010     1.7806 N.ar    
  22 C22            8.4336     8.8047     2.3613 C.ar    
  23 C23            8.1247     9.7768     3.2991 C.ar    
  24 C24            6.7976    10.0076     3.6270 C.ar    
  25 C25            5.8202     9.2550     2.9956 C.ar    
  26 C26            3.8988     3.1390    -2.5774 C.3     
  27 C27            4.4067     3.7394    -3.8898 C.3     
  28 C28            4.8890     2.0827    -2.0829 C.3     
  29 C29            0.7573     2.8665     0.9468 C.3     
  30 H30           -1.4037     3.5749    -1.6234 H       
  31 H31           -3.4849     2.4276    -2.2668 H       
  32 H32           -3.7066    -0.0014    -1.9345 H       
  33 H33           -1.8464    -1.2863    -0.9593 H       
  34 H34            1.6675     1.8310    -0.7085 H       
  35 H35            6.4746     6.4085     0.2764 H       
  36 H36            9.4664     8.6222     2.1038 H       
  37 H37            8.9102    10.3489     3.7704 H       
  38 H38            6.5314    10.7594     4.3552 H       
  39 H39            4.7764     9.4082     3.2268 H       
  40 H40            2.9258     2.6760    -2.7422 H       
  41 H41            4.5011     2.9517    -4.6373 H       
  42 H42            3.7012     4.4920    -4.2421 H       
  43 H43            5.3796     4.2025    -3.7250 H       
  44 H44            4.5272     1.6549    -1.1480 H       
  45 H45            4.9835     1.2950    -2.8304 H       
  46 H46            5.8620     2.5457    -1.9182 H       
  47 H47           -0.0914     3.5284     1.1197 H       
  48 H48            0.6409     1.9627     1.5449 H       
  49 H49            1.6784     3.3748     1.2319 H       
@<TRIPOS>BOND
   1    1    2 ar
   2    1    8 1
   3    1    6 ar
   4    2    3 ar
   5    2   30 1
   6    3    4 ar
   7    3   31 1
   8    4    5 ar
   9    4   32 1
  10    5    6 ar
  11    5   33 1
  12    6    7 1
  13    8    9 1
  14    8   29 1
  15    8   34 1
  16    9   10 1
  17    9   11 2
  18    9   12 2
  19   10   13 2
  20   10   16 1
  21   13   14 1
  22   13   26 1
  23   14   15 2
  24   15   16 1
  25   15   17 1
  26   17   18 am
  27   17   35 1
  28   18   19 2
  29   18   20 1
  30   20   21 ar
  31   20   25 ar
  32   21   22 ar
  33   22   23 ar
  34   22   36 1
  35   23   24 ar
  36   23   37 1
  37   24   25 ar
  38   24   38 1
  39   25   39 1
  40   26   27 1
  41   26   28 1
  42   26   40 1
  43   27   41 1
  44   27   42 1
  45   27   43 1
  46   28   44 1
  47   28   45 1
  48   28   46 1
  49   29   47 1
  50   29   48 1
  51   29   49 1

#	End of record

