#	Name: ASD01810135
#	Creating user name:	WinNT
#	Creation time:	15. 06. 2019 19:23

#	Modifying user name:	WinNT
#	Modification time:	15. 06. 2019 19:23

#	Program:	/corina/corina34_cracker 3.40 0067  02.08.2006

@<TRIPOS>MOLECULE
ASD01810135
  37   39    0    0    0
SMALL
NO_CHARGES


@<TRIPOS>ATOM
   1 C1            -0.0157     1.3828    -0.1176 C.ar    
   2 C2             0.0031    -0.0035    -0.1239 C.ar    
   3 C3             1.1983    -0.6929    -0.0965 C.ar    
   4 C4             2.4044     0.0045    -0.0625 C.ar    
   5 C5             2.3838     1.4097    -0.0567 C.ar    
   6 C6             1.1665     2.0948    -0.0842 C.ar    
   7 N7             3.6050    -0.6734    -0.0339 N.pl3   
   8 C8             4.7894    -0.0497     0.0001 C.2     
   9 C9             4.8958     1.3265     0.0096 C.2     
  10 C10            3.6660     2.1351    -0.0207 C.2     
  11 O11            3.7066     3.3531    -0.0143 O.2     
  12 C12            6.2147     1.9735     0.0483 C.2     
  13 O13            6.3056     3.3185     0.0572 O.3     
  14 O14            7.2237     1.2959     0.0723 O.2     
  15 C15            3.5837    -2.1382    -0.0406 C.3     
  16 F16            1.1991    -2.0439    -0.1021 F       
  17 C17            3.4381    -2.6396    -1.4787 C.3     
  18 C18            3.4161    -4.1464    -1.4856 C.ar    
  19 C19            2.2145    -4.8207    -1.3740 C.ar    
  20 C20            2.1944    -6.2029    -1.3802 C.ar    
  21 C21            3.3758    -6.9108    -1.4985 C.ar    
  22 C22            4.5773    -6.2365    -1.6111 C.ar    
  23 C23            4.5970    -4.8543    -1.6092 C.ar    
  24 F24            1.1465     3.4457    -0.0791 F       
  25 H25           -0.9591     1.9079    -0.1435 H       
  26 H26           -0.9280    -0.5500    -0.1501 H       
  27 H27            5.6914    -0.6432     0.0213 H       
  28 H28            7.1945     3.6983     0.0830 H       
  29 H29            4.5134    -2.5171     0.3839 H       
  30 H30            2.7418    -2.4920     0.5545 H       
  31 H31            2.5083    -2.2607    -1.9032 H       
  32 H32            4.2799    -2.2858    -2.0739 H       
  33 H33            1.2915    -4.2676    -1.2815 H       
  34 H34            1.2557    -6.7296    -1.2923 H       
  35 H35            3.3601    -7.9907    -1.5027 H       
  36 H36            5.5003    -6.7896    -1.7032 H       
  37 H37            5.5357    -4.3275    -1.6971 H       
@<TRIPOS>BOND
   1    1    2 ar
   2    1    6 ar
   3    1   25 1
   4    2    3 ar
   5    2   26 1
   6    3    4 ar
   7    3   16 1
   8    4    5 ar
   9    4    7 1
  10    5    6 ar
  11    5   10 1
  12    6   24 1
  13    7    8 1
  14    7   15 1
  15    8    9 2
  16    8   27 1
  17    9   10 1
  18    9   12 1
  19   10   11 2
  20   12   13 1
  21   12   14 2
  22   13   28 1
  23   15   17 1
  24   15   29 1
  25   15   30 1
  26   17   18 1
  27   17   31 1
  28   17   32 1
  29   18   19 ar
  30   18   23 ar
  31   19   20 ar
  32   19   33 1
  33   20   21 ar
  34   20   34 1
  35   21   22 ar
  36   21   35 1
  37   22   23 ar
  38   22   36 1
  39   23   37 1

#	End of record

