#	Name: ASD08178114
#	Creating user name:	WinNT
#	Creation time:	15. 06. 2019 21:18

#	Modifying user name:	WinNT
#	Modification time:	15. 06. 2019 21:18

#	Program:	/corina/corina34_cracker 3.40 0067  02.08.2006

@<TRIPOS>MOLECULE
ASD08178114
  76   81    0    0    0
SMALL
NO_CHARGES


@<TRIPOS>ATOM
   1 C1            -0.0184     1.5028     0.0103 C.2     
   2 C2             0.0021    -0.0041     0.0020 C.3     
   3 C3             0.0221    -0.5218     1.4416 C.3     
   4 C4             0.0429    -2.0516     1.4332 C.3     
   5 C5             0.0630    -2.5693     2.8728 C.3     
   6 C6             0.0834    -4.0761     2.8645 C.2     
   7 N7             1.1396    -4.8258     2.8513 N.2     
   8 N8             0.9467    -6.0734     2.8463 N.2     
   9 C9            -0.2824    -6.4936     2.8547 C.2     
  10 S10           -1.3267    -5.1359     2.8788 S.3     
  11 N11           -0.6838    -7.8252     2.8506 N.am    
  12 N12            1.0171     2.2809     0.0046 N.2     
  13 C13            0.2391    -8.8073     2.8374 C.2     
  14 O14            1.4197    -8.5298     2.8290 O.2     
  15 C15           -0.1960   -10.2501     2.8329 C.3     
  16 C16            1.0193   -11.1412     2.8177 C.ar    
  17 N17            0.7904     3.5228     0.0134 N.2     
  18 C18           -0.4495     3.9094     0.0274 C.2     
  19 S19           -1.4568     2.5237     0.0218 S.3     
  20 C20            2.6807   -12.3612     1.5909 C.ar    
  21 C21            1.5848   -11.5551     4.0067 C.ar    
  22 C22            2.7081   -12.3794     3.9912 C.ar    
  23 C23            3.2543   -12.7811     2.7740 C.ar    
  24 C24            1.5625   -11.5473     1.6122 C.ar    
  25 N25           -0.8870     5.2295     0.0390 N.am    
  26 C26            0.0089     6.2364     0.0358 C.2     
  27 O27            1.1967     5.9912     0.0228 O.2     
  28 C28           -0.4651     7.6668     0.0485 C.3     
  29 C29            0.7256     8.5906     0.0419 C.ar    
  30 C30            1.2592     9.0205    -1.1596 C.ar    
  31 C31            2.3519     9.8685    -1.1730 C.ar    
  32 C32            2.9156    10.2907     0.0140 C.ar    
  33 C33            2.3818     9.8611     1.2273 C.ar    
  34 C34            1.2780     9.0108     1.2349 C.ar    
  35 C35            2.9839    10.3113     2.5067 C.ar    
  36 C36            2.4574     9.8872     3.7246 C.ar    
  37 C37            3.3207   -12.8273     5.2664 C.ar    
  38 C38            2.7821   -12.4305     6.4882 C.ar    
  39 N39            3.3253   -12.8271     7.6210 N.ar    
  40 C40            4.3885   -13.6071     7.6476 C.ar    
  41 C41            4.9815   -14.0442     6.4769 C.ar    
  42 C42            4.4441   -13.6588     5.2610 C.ar    
  43 N43            2.9907    10.2865     4.8612 N.ar    
  44 C44            4.0328    11.0940     4.8953 C.ar    
  45 C45            4.6132    11.5586     3.7289 C.ar    
  46 C46            4.0921    11.1630     2.5092 C.ar    
  47 H47           -0.8875    -0.3767    -0.5057 H       
  48 H48            0.8922    -0.3525    -0.5218 H       
  49 H49            0.9118    -0.1491     1.9494 H       
  50 H50           -0.8680    -0.1733     1.9655 H       
  51 H51           -0.8467    -2.4242     0.9255 H       
  52 H52            0.9330    -2.4000     0.9094 H       
  53 H53            0.9526    -2.1967     3.3806 H       
  54 H54           -0.8271    -2.2209     3.3967 H       
  55 H55           -1.6281    -8.0470     2.8573 H       
  56 H56           -0.7854   -10.4546     3.7267 H       
  57 H57           -0.8003   -10.4446     1.9469 H       
  58 H58            3.1010   -12.6751     0.6469 H       
  59 H59            1.1576   -11.2405     4.9475 H       
  60 H60            4.1247   -13.4202     2.7562 H       
  61 H61            1.1168   -11.2210     0.6842 H       
  62 H62           -1.8369     5.4256     0.0495 H       
  63 H63           -1.0758     7.8550    -0.8345 H       
  64 H64           -1.0583     7.8451     0.9454 H       
  65 H65            0.8212     8.6926    -2.0908 H       
  66 H66            2.7650    10.2005    -2.1140 H       
  67 H67            3.7690    10.9525     0.0024 H       
  68 H68            0.8602     8.6751     2.1725 H       
  69 H69            1.6040     9.2254     3.7372 H       
  70 H70            1.9114   -11.7917     6.5070 H       
  71 H71            4.8028   -13.9089     8.5982 H       
  72 H72            5.8521   -14.6824     6.5113 H       
  73 H73            4.8866   -13.9856     4.3315 H       
  74 H74            4.4392    11.3976     5.8488 H       
  75 H75            5.4662    12.2198     3.7694 H       
  76 H76            4.5257    11.5101     1.5830 H       
@<TRIPOS>BOND
   1    1    2 1
   2    1   12 2
   3    1   19 1
   4    2    3 1
   5    2   47 1
   6    2   48 1
   7    3    4 1
   8    3   49 1
   9    3   50 1
  10    4    5 1
  11    4   51 1
  12    4   52 1
  13    5    6 1
  14    5   53 1
  15    5   54 1
  16    6    7 2
  17    6   10 1
  18    7    8 1
  19    8    9 2
  20    9   10 1
  21    9   11 1
  22   11   13 am
  23   11   55 1
  24   12   17 1
  25   13   14 2
  26   13   15 1
  27   15   16 1
  28   15   56 1
  29   15   57 1
  30   16   21 ar
  31   16   24 ar
  32   17   18 2
  33   18   19 1
  34   18   25 1
  35   20   24 ar
  36   20   23 ar
  37   20   58 1
  38   21   22 ar
  39   21   59 1
  40   22   23 ar
  41   22   37 1
  42   23   60 1
  43   24   61 1
  44   25   26 am
  45   25   62 1
  46   26   27 2
  47   26   28 1
  48   28   29 1
  49   28   63 1
  50   28   64 1
  51   29   30 ar
  52   29   34 ar
  53   30   31 ar
  54   30   65 1
  55   31   32 ar
  56   31   66 1
  57   32   33 ar
  58   32   67 1
  59   33   34 ar
  60   33   35 1
  61   34   68 1
  62   35   36 ar
  63   35   46 ar
  64   36   43 ar
  65   36   69 1
  66   37   38 ar
  67   37   42 ar
  68   38   39 ar
  69   38   70 1
  70   39   40 ar
  71   40   41 ar
  72   40   71 1
  73   41   42 ar
  74   41   72 1
  75   42   73 1
  76   43   44 ar
  77   44   45 ar
  78   44   74 1
  79   45   46 ar
  80   45   75 1
  81   46   76 1

#	End of record

