#	Name: ASD02560372
#	Creating user name:	WinNT
#	Creation time:	15. 06. 2019 20:25

#	Modifying user name:	WinNT
#	Modification time:	15. 06. 2019 20:25

#	Program:	/corina/corina34_cracker 3.40 0067  02.08.2006

@<TRIPOS>MOLECULE
ASD02560372
  48   50    0    0    0
SMALL
NO_CHARGES


@<TRIPOS>ATOM
   1 C1             0.0157     1.4261     0.3050 C.2     
   2 C2             0.0204     0.0251     0.1818 C.2     
   3 C3             1.1856    -0.6481     0.1019 C.2     
   4 N4             2.3793     0.0200     0.1394 N.pl3   
   5 C5             2.4057     1.3905     0.2589 C.2     
   6 C6             1.1930     2.1049     0.3433 C.2     
   7 C7             3.6796    -0.4017     0.0789 C.2     
   8 C8             4.4618     0.7040     0.1615 C.2     
   9 N9             3.6713     1.7780     0.2699 N.2     
  10 C10            5.9685     0.7196     0.1359 C.3     
  11 N11            4.1201    -1.7252    -0.0446 N.3     
  12 C12            2.9997    -2.6669     0.0813 C.3     
  13 C13            2.3196    -2.8352    -1.2789 C.3     
  14 C14            5.9189     2.1523    -1.9104 C.3     
  15 C15            6.4527     0.8504    -1.3095 C.3     
  16 C16            3.5239    -4.0221     0.5606 C.3     
  17 C17            2.3570    -5.0029     0.6917 C.3     
  18 C18            1.6769    -5.1712    -0.6684 C.3     
  19 C19            1.1527    -3.8160    -1.1477 C.3     
  20 C20            7.9824     0.8662    -1.3355 C.3     
  21 C21            5.9410    -0.3366    -2.1282 C.3     
  22 H22           -0.9204     1.9615     0.3646 H       
  23 H23           -0.9147    -0.5144     0.1514 H       
  24 H24            1.1770    -1.7239     0.0079 H       
  25 H25            1.1994     3.1808     0.4371 H       
  26 H26            6.3330     1.5652     0.7191 H       
  27 H27            6.3487    -0.2079     0.5640 H       
  28 H28            4.6121    -1.8628    -0.9147 H       
  29 H29            2.2795    -2.2803     0.8023 H       
  30 H30            1.9462    -1.8698    -1.6203 H       
  31 H31            3.0399    -3.2218    -1.9999 H       
  32 H32            6.2835     2.9979    -1.3272 H       
  33 H33            6.2639     2.2455    -2.9401 H       
  34 H34            4.8291     2.1410    -1.8919 H       
  35 H35            4.2442    -4.4086    -0.1605 H       
  36 H36            4.0085    -3.9021     1.5296 H       
  37 H37            2.7305    -5.9683     1.0332 H       
  38 H38            1.6367    -4.6163     1.4127 H       
  39 H39            2.3972    -5.5578    -1.3895 H       
  40 H40            0.8456    -5.8699    -0.5750 H       
  41 H41            0.4324    -3.4295    -0.4267 H       
  42 H42            0.6682    -3.9359    -2.1167 H       
  43 H43            8.3469     1.7118    -0.7523 H       
  44 H44            8.3627    -0.0613    -0.9074 H       
  45 H45            8.3274     0.9594    -2.3653 H       
  46 H46            6.2860    -0.2434    -3.1580 H       
  47 H47            6.3213    -1.2641    -1.7001 H       
  48 H48            4.8512    -0.3479    -2.1097 H       
@<TRIPOS>BOND
   1    1    2 1
   2    1    6 2
   3    1   22 1
   4    2    3 2
   5    2   23 1
   6    3    4 1
   7    3   24 1
   8    4    5 1
   9    4    7 1
  10    5    6 1
  11    5    9 2
  12    6   25 1
  13    7    8 2
  14    7   11 1
  15    8    9 1
  16    8   10 1
  17   10   15 1
  18   10   26 1
  19   10   27 1
  20   11   12 1
  21   11   28 1
  22   12   16 1
  23   12   13 1
  24   12   29 1
  25   13   19 1
  26   13   30 1
  27   13   31 1
  28   14   15 1
  29   14   32 1
  30   14   33 1
  31   14   34 1
  32   15   20 1
  33   15   21 1
  34   16   17 1
  35   16   35 1
  36   16   36 1
  37   17   18 1
  38   17   37 1
  39   17   38 1
  40   18   19 1
  41   18   39 1
  42   18   40 1
  43   19   41 1
  44   19   42 1
  45   20   43 1
  46   20   44 1
  47   20   45 1
  48   21   46 1
  49   21   47 1
  50   21   48 1

#	End of record

