#	Name: ASD08710020
#	Creating user name:	WinNT
#	Creation time:	15. 06. 2019 21:19

#	Modifying user name:	WinNT
#	Modification time:	15. 06. 2019 21:19

#	Program:	/corina/corina34_cracker 3.40 0067  02.08.2006

@<TRIPOS>MOLECULE
ASD08710020
  52   55    0    0    0
SMALL
NO_CHARGES


@<TRIPOS>ATOM
   1 C1            -0.8730    -0.2556    -1.4261 C.ar    
   2 C2            -0.6191    -1.5763    -1.1066 C.ar    
   3 C3             0.1758     0.6299    -1.5895 C.ar    
   4 C4             1.4785     0.1947    -1.4334 C.ar    
   5 C5             1.7324    -1.1260    -1.1135 C.ar    
   6 C6             0.6836    -2.0116    -0.9506 C.ar    
   7 S7             1.0072    -3.6948    -0.5423 S.o2    
   8 O8            -0.1240    -4.4375    -0.9760 O.2     
   9 O9             2.3308    -3.9670    -0.9819 O.2     
  10 N10            1.0318    -3.8024     1.1100 N.am    
  11 C11           -0.1996    -4.0891     1.8593 C.3     
  12 C12            2.2865    -3.6190     1.8530 C.3     
  13 C13            2.5194    -4.8527     2.7338 C.3     
  14 N14            1.2870    -5.1339     3.4835 N.am    
  15 C15            0.0386    -5.3219     2.7401 C.3     
  16 C16           -0.1010     2.0697    -1.9382 C.3     
  17 F17           -0.2404     2.8156    -0.7629 F       
  18 F18            0.9622     2.5798    -2.6910 F       
  19 F19           -1.2816     2.1501    -2.6844 F       
  20 C20            1.3071    -5.2224     4.8282 C.2     
  21 C21            0.0375    -5.3503     5.5813 C.ar    
  22 O22            2.3665    -5.1973     5.4229 O.2     
  23 C23            0.0520    -5.8687     6.8724 C.ar    
  24 N24           -1.1015    -4.9641     5.0196 N.ar    
  25 C25           -2.2537    -5.0573     5.6477 C.ar    
  26 C26           -2.3265    -5.5666     6.9320 C.ar    
  27 C27           -1.1541    -5.9820     7.5684 C.ar    
  28 C28           -1.1896    -6.5342     8.9452 C.ar    
  29 C29           -2.4145    -6.7389     9.5757 C.ar    
  30 C30           -2.4319    -7.2550    10.8606 C.ar    
  31 C31           -1.2222    -7.5492    11.4723 C.ar    
  32 C32           -0.0424    -7.3206    10.7870 C.ar    
  33 N33           -0.0546    -6.8339     9.5633 N.ar    
  34 H34           -1.8906     0.0834    -1.5524 H       
  35 H35           -1.4386    -2.2681    -0.9786 H       
  36 H36            2.2980     0.8864    -1.5617 H       
  37 H37            2.7503    -1.4662    -0.9923 H       
  38 H38           -0.4533    -3.2347     2.4868 H       
  39 H39           -1.0136    -4.2891     1.1626 H       
  40 H40            3.1138    -3.5085     1.1520 H       
  41 H41            2.2138    -2.7303     2.4799 H       
  42 H42            2.7691    -5.7083     2.1063 H       
  43 H43            3.3345    -4.6564     3.4303 H       
  44 H44           -0.7905    -5.4318     3.4393 H       
  45 H45            0.1148    -6.2125     2.1163 H       
  46 H46            0.9803    -6.1789     7.3289 H       
  47 H47           -3.1566    -4.7308     5.1532 H       
  48 H48           -3.2778    -5.6382     7.4383 H       
  49 H49           -3.3377    -6.4983     9.0697 H       
  50 H50           -3.3663    -7.4242    11.3750 H       
  51 H51           -1.2016    -7.9524    12.4740 H       
  52 H52            0.9013    -7.5482    11.2604 H       
@<TRIPOS>BOND
   1    1    2 ar
   2    1    3 ar
   3    1   34 1
   4    2    6 ar
   5    2   35 1
   6    3    4 ar
   7    3   16 1
   8    4    5 ar
   9    4   36 1
  10    5    6 ar
  11    5   37 1
  12    6    7 1
  13    7    8 2
  14    7    9 2
  15    7   10 am
  16   10   11 1
  17   10   12 1
  18   11   15 1
  19   11   38 1
  20   11   39 1
  21   12   13 1
  22   12   40 1
  23   12   41 1
  24   13   14 1
  25   13   42 1
  26   13   43 1
  27   14   15 1
  28   14   20 am
  29   15   44 1
  30   15   45 1
  31   16   17 1
  32   16   18 1
  33   16   19 1
  34   20   21 1
  35   20   22 2
  36   21   23 ar
  37   21   24 ar
  38   23   27 ar
  39   23   46 1
  40   24   25 ar
  41   25   26 ar
  42   25   47 1
  43   26   27 ar
  44   26   48 1
  45   27   28 1
  46   28   29 ar
  47   28   33 ar
  48   29   30 ar
  49   29   49 1
  50   30   31 ar
  51   30   50 1
  52   31   32 ar
  53   31   51 1
  54   32   33 ar
  55   32   52 1

#	End of record

