#	Name: ASD01590003
#	Creating user name:	WinNT
#	Creation time:	15. 06. 2019 19:22

#	Modifying user name:	WinNT
#	Modification time:	15. 06. 2019 19:22

#	Program:	/corina/corina34_cracker 3.40 0067  02.08.2006

@<TRIPOS>MOLECULE
ASD01590003
  63   67    0    0    0
SMALL
NO_CHARGES


@<TRIPOS>ATOM
   1 C1            -0.0170     1.4042     0.0098 C.ar    
   2 C2             0.0021    -0.0041     0.0020 C.ar    
   3 C3             1.1797     2.1173     0.0022 C.ar    
   4 C4             1.2223    -0.6769    -0.0128 C.ar    
   5 C5             2.3870     1.4252    -0.0131 C.ar    
   6 C6             2.3923     0.0229    -0.0194 C.ar    
   7 C7            -1.4309     1.7899     0.0312 C.2     
   8 C8            -2.1458     0.6542     0.0349 C.2     
   9 N9            -1.3063    -0.4263     0.0122 N.pl3   
  10 C10           -1.9775     3.1942     0.0462 C.3     
  11 C11            3.6247     2.1455    -0.0210 C.1     
  12 N12            4.6065     2.7169    -0.0273 N.1     
  13 C13           -2.0651     3.7227    -1.3870 C.3     
  14 C14           -2.6201     5.1484    -1.3718 C.3     
  15 C15           -2.7077     5.6769    -2.8050 C.3     
  16 C16           -3.5472     9.1386    -4.0259 C.3     
  17 C17           -4.9960     9.2140    -3.5361 C.3     
  18 C18           -3.1190     7.6719    -4.1131 C.3     
  19 C19           -5.1049     8.5125    -2.1794 C.3     
  20 N20           -3.2406     7.0457    -2.7904 N.3     
  21 C21           -4.6316     7.0640    -2.3201 C.3     
  22 N22           -5.3927    10.6172    -3.3949 N.am    
  23 C23           -6.6934    10.9610    -3.4744 C.2     
  24 C24           -7.0929    12.3740    -3.3323 C.ar    
  25 C25           -7.8246    15.0524    -3.0602 C.ar    
  26 C26           -8.8046    14.0876    -3.2763 C.ar    
  27 C27           -6.4975    14.6818    -2.9761 C.ar    
  28 C28           -8.4473    12.7371    -3.4145 C.ar    
  29 C29           -6.1292    13.3560    -3.1101 C.ar    
  30 C30          -10.2724    14.1329    -3.4142 C.2     
  31 C31          -10.6801    12.8478    -3.6119 C.2     
  32 N32           -9.6023    12.0211    -3.6151 N.pl3   
  33 C33          -11.1043    15.2967    -3.3508 C.1     
  34 N34          -11.7644    16.2199    -3.3005 N.1     
  35 O35           -7.5377    10.1066    -3.6633 O.2     
  36 H36            1.1706     3.1973     0.0077 H       
  37 H37            1.2412    -1.7567    -0.0188 H       
  38 H38            3.3327    -0.5081    -0.0305 H       
  39 H39           -3.2244     0.6009     0.0498 H       
  40 H40           -1.5921    -1.3533     0.0097 H       
  41 H41           -2.9712     3.1925     0.4941 H       
  42 H42           -1.3169     3.8351     0.6300 H       
  43 H43           -1.0714     3.7244    -1.8350 H       
  44 H44           -2.7258     3.0818    -1.9709 H       
  45 H45           -3.6138     5.1467    -0.9238 H       
  46 H46           -1.9595     5.7893    -0.7879 H       
  47 H47           -1.7140     5.6786    -3.2529 H       
  48 H48           -3.3683     5.0360    -3.3888 H       
  49 H49           -3.4717     9.5989    -5.0111 H       
  50 H50           -2.8987     9.6661    -3.3265 H       
  51 H51           -5.6497     8.7202    -4.2550 H       
  52 H52           -3.7592     7.1482    -4.8230 H       
  53 H53           -2.0832     7.6153    -4.4479 H       
  54 H54           -4.4809     9.0301    -1.4509 H       
  55 H55           -6.1424     8.5255    -1.8453 H       
  56 H56           -4.6944     6.5658    -1.3526 H       
  57 H57           -5.2647     6.5432    -3.0384 H       
  58 H58           -4.7192    11.2988    -3.2443 H       
  59 H59           -8.1030    16.0905    -2.9544 H       
  60 H60           -5.7408    15.4338    -2.8084 H       
  61 H61           -5.0875    13.0793    -3.0417 H       
  62 H62          -11.7045    12.5347    -3.7500 H       
  63 H63           -9.6426    11.0602    -3.7415 H       
@<TRIPOS>BOND
   1    1    2 ar
   2    1    3 ar
   3    1    7 1
   4    2    4 ar
   5    2    9 1
   6    3    5 ar
   7    3   36 1
   8    4    6 ar
   9    4   37 1
  10    5    6 ar
  11    5   11 1
  12    6   38 1
  13    7    8 2
  14    7   10 1
  15    8    9 1
  16    8   39 1
  17    9   40 1
  18   10   13 1
  19   10   41 1
  20   10   42 1
  21   11   12 3
  22   13   14 1
  23   13   43 1
  24   13   44 1
  25   14   15 1
  26   14   45 1
  27   14   46 1
  28   15   20 1
  29   15   47 1
  30   15   48 1
  31   16   17 1
  32   16   18 1
  33   16   49 1
  34   16   50 1
  35   17   19 1
  36   17   22 1
  37   17   51 1
  38   18   20 1
  39   18   52 1
  40   18   53 1
  41   19   21 1
  42   19   54 1
  43   19   55 1
  44   20   21 1
  45   21   56 1
  46   21   57 1
  47   22   23 am
  48   22   58 1
  49   23   24 1
  50   23   35 2
  51   24   28 ar
  52   24   29 ar
  53   25   26 ar
  54   25   27 ar
  55   25   59 1
  56   26   28 ar
  57   26   30 1
  58   27   29 ar
  59   27   60 1
  60   28   32 1
  61   29   61 1
  62   30   31 2
  63   30   33 1
  64   31   32 1
  65   31   62 1
  66   32   63 1
  67   33   34 3

#	End of record

