#	Name: ASD01008004
#	Creating user name:	WinNT
#	Creation time:	15. 06. 2019 18:55

#	Modifying user name:	WinNT
#	Modification time:	15. 06. 2019 18:55

#	Program:	/corina/corina34_cracker 3.40 0067  02.08.2006

@<TRIPOS>MOLECULE
ASD01008004
  52   54    0    0    0
SMALL
NO_CHARGES


@<TRIPOS>ATOM
   1 C1             2.9166    -3.3146    -0.6698 C.2     
   2 N2             0.5940    -3.7038    -1.2687 N.3     
   3 C3             1.4907    -2.8820    -0.4450 C.3     
   4 C4             1.1311    -3.0581     1.0317 C.3     
   5 C5            -0.2723    -2.5037     1.2845 C.3     
   6 C6            -0.6264    -2.6673     2.7640 C.3     
   7 O7             3.1512    -4.4072    -1.1292 O.2     
   8 O8             3.9260    -2.4839    -0.3650 O.3     
   9 C9             0.4435    -2.0270     3.6103 C.ar    
  10 C10            0.6464    -0.6609     3.5511 C.ar    
  11 C11            1.6278    -0.0735     4.3274 C.ar    
  12 C12            2.4061    -0.8522     5.1633 C.ar    
  13 C13            2.2026    -2.2182     5.2233 C.ar    
  14 C14            1.2182    -2.8050     4.4502 C.ar    
  15 C15           -1.9503    -2.0024     3.0401 C.ar    
  16 C16           -3.0522    -2.3069     2.2629 C.ar    
  17 C17           -4.2666    -1.6970     2.5161 C.ar    
  18 C18           -4.3792    -0.7829     3.5469 C.ar    
  19 C19           -3.2776    -0.4790     4.3247 C.ar    
  20 C20           -2.0643    -1.0922     4.0742 C.ar    
  21 C21           -0.7212    -4.1336     3.0987 C.ar    
  22 C22           -0.9556    -4.5314     4.4018 C.ar    
  23 C23           -1.0425    -5.8762     4.7088 C.ar    
  24 C24           -0.8955    -6.8236     3.7126 C.ar    
  25 C25           -0.6621    -6.4259     2.4097 C.ar    
  26 C26           -0.5795    -5.0805     2.1019 C.ar    
  27 C27           -1.2970    -6.3099     6.1294 C.3     
  28 H28            0.6772    -4.6805    -1.0297 H       
  29 H29           -0.3618    -3.3913    -1.1850 H       
  30 H30            1.3808    -1.8338    -0.7232 H       
  31 H31            1.1548    -4.1174     1.2876 H       
  32 H32            1.8510    -2.5193     1.6477 H       
  33 H33           -0.2987    -1.4468     1.0193 H       
  34 H34           -0.9935    -3.0491     0.6759 H       
  35 H35            4.8234    -2.8057    -0.5267 H       
  36 H36            0.0383    -0.0525     2.8979 H       
  37 H37            1.7868     0.9937     4.2805 H       
  38 H38            3.1733    -0.3935     5.7693 H       
  39 H39            2.8108    -2.8266     5.8762 H       
  40 H40            1.0568    -3.8717     4.4998 H       
  41 H41           -2.9642    -3.0211     1.4575 H       
  42 H42           -5.1272    -1.9344     1.9084 H       
  43 H43           -5.3278    -0.3058     3.7443 H       
  44 H44           -3.3656     0.2355     5.1299 H       
  45 H45           -1.2045    -0.8575     4.6843 H       
  46 H46           -1.0705    -3.7914     5.1800 H       
  47 H47           -0.9627    -7.8745     3.9526 H       
  48 H48           -0.5469    -7.1659     1.6316 H       
  49 H49           -0.4008    -4.7696     1.0832 H       
  50 H50           -2.3710    -6.3887     6.2984 H       
  51 H51           -0.8299    -7.2794     6.3026 H       
  52 H52           -0.8743    -5.5753     6.8148 H       
@<TRIPOS>BOND
   1    1    3 1
   2    1    7 2
   3    1    8 1
   4    2    3 1
   5    2   28 1
   6    2   29 1
   7    3    4 1
   8    3   30 1
   9    4    5 1
  10    4   31 1
  11    4   32 1
  12    5    6 1
  13    5   33 1
  14    5   34 1
  15    6    9 1
  16    6   15 1
  17    6   21 1
  18    8   35 1
  19    9   10 ar
  20    9   14 ar
  21   10   11 ar
  22   10   36 1
  23   11   12 ar
  24   11   37 1
  25   12   13 ar
  26   12   38 1
  27   13   14 ar
  28   13   39 1
  29   14   40 1
  30   15   16 ar
  31   15   20 ar
  32   16   17 ar
  33   16   41 1
  34   17   18 ar
  35   17   42 1
  36   18   19 ar
  37   18   43 1
  38   19   20 ar
  39   19   44 1
  40   20   45 1
  41   21   22 ar
  42   21   26 ar
  43   22   23 ar
  44   22   46 1
  45   23   24 ar
  46   23   27 1
  47   24   25 ar
  48   24   47 1
  49   25   26 ar
  50   25   48 1
  51   26   49 1
  52   27   50 1
  53   27   51 1
  54   27   52 1

#	End of record

