#	Name: ASD04880356
#	Creating user name:	WinNT
#	Creation time:	15. 06. 2019 20:53

#	Modifying user name:	WinNT
#	Modification time:	15. 06. 2019 20:53

#	Program:	/corina/corina34_cracker 3.40 0067  02.08.2006

@<TRIPOS>MOLECULE
ASD04880356
  40   43    0    0    0
SMALL
NO_CHARGES


@<TRIPOS>ATOM
   1 C1            -0.0278     1.3878    -0.2807 C.ar    
   2 C2            -0.0052    -0.0197    -0.2625 C.ar    
   3 C3             1.2126    -0.6969    -0.2222 C.ar    
   4 C4             2.3983     0.0313    -0.2004 C.ar    
   5 C5             2.3615     1.4330    -0.2189 C.ar    
   6 C6             1.1709     2.0970    -0.2583 C.ar    
   7 C7             3.6939    -0.6714    -0.1573 C.2     
   8 N8             3.8455    -1.9507    -0.1373 N.2     
   9 N9             5.1750    -2.3658    -0.0969 N.am    
  10 C10            6.0442    -1.1784    -0.0886 C.3     
  11 C11            5.0494    -0.0017    -0.1362 C.3     
  12 C12            5.5962    -3.6458    -0.0694 C.2     
  13 O13            6.7839    -3.8967    -0.1388 O.2     
  14 C14            4.6143    -4.7445     0.0451 C.ar    
  15 C15            5.0312    -6.0718    -0.0698 C.ar    
  16 C16            3.2672    -4.4594     0.2744 C.ar    
  17 C17            2.3547    -5.4889     0.3810 C.ar    
  18 C18            2.7714    -6.8023     0.2617 C.ar    
  19 C19            4.1079    -7.0938     0.0388 C.ar    
  20 F20            4.5077    -8.3791    -0.0771 F       
  21 C21           -1.4064    -0.4480    -0.2937 C.2     
  22 C22           -2.1554     0.6652    -0.3272 C.2     
  23 N23           -1.3496     1.7709    -0.3145 N.pl3   
  24 C24           -1.8231     3.1571    -0.3421 C.3     
  25 H25            1.2356    -1.7765    -0.2078 H       
  26 H26            3.2853     1.9923    -0.2014 H       
  27 H27            1.1575     3.1768    -0.2725 H       
  28 H28            6.6399    -1.1454     0.8236 H       
  29 H29            6.6874    -1.1677    -0.9686 H       
  30 H30            5.2027     0.5924    -1.0372 H       
  31 H31            5.1489     0.6193     0.7540 H       
  32 H32            6.0726    -6.2991    -0.2435 H       
  33 H33            2.9398    -3.4346     0.3686 H       
  34 H34            1.3124    -5.2685     0.5583 H       
  35 H35            2.0529    -7.6041     0.3463 H       
  36 H36           -1.7675    -1.4658    -0.2907 H       
  37 H37           -3.2349     0.6852    -0.3556 H       
  38 H38           -1.9711     3.5108     0.6782 H       
  39 H39           -1.0834     3.7838    -0.8402 H       
  40 H40           -2.7670     3.2078    -0.8848 H       
@<TRIPOS>BOND
   1    1    2 ar
   2    1    6 ar
   3    1   23 1
   4    2    3 ar
   5    2   21 1
   6    3    4 ar
   7    3   25 1
   8    4    5 ar
   9    4    7 1
  10    5    6 ar
  11    5   26 1
  12    6   27 1
  13    7    8 2
  14    7   11 1
  15    8    9 1
  16    9   10 1
  17    9   12 am
  18   10   11 1
  19   10   28 1
  20   10   29 1
  21   11   30 1
  22   11   31 1
  23   12   13 2
  24   12   14 1
  25   14   15 ar
  26   14   16 ar
  27   15   19 ar
  28   15   32 1
  29   16   17 ar
  30   16   33 1
  31   17   18 ar
  32   17   34 1
  33   18   19 ar
  34   18   35 1
  35   19   20 1
  36   21   22 2
  37   21   36 1
  38   22   23 1
  39   22   37 1
  40   23   24 1
  41   24   38 1
  42   24   39 1
  43   24   40 1

#	End of record

