#	Name: ASD01208007
#	Creating user name:	WinNT
#	Creation time:	15. 06. 2019 19:09

#	Modifying user name:	WinNT
#	Modification time:	15. 06. 2019 19:09

#	Program:	/corina/corina34_cracker 3.40 0067  02.08.2006

@<TRIPOS>MOLECULE
ASD01208007
  67   70    0    0    0
SMALL
NO_CHARGES


@<TRIPOS>ATOM
   1 C1            -0.0841     1.4340     0.0277 C.ar    
   2 C2             0.0186     0.0511    -0.0130 C.ar    
   3 C3            -1.1244    -0.7352     0.0266 C.ar    
   4 C4            -2.3732    -0.1417     0.1066 C.ar    
   5 C5            -2.4810     1.2493     0.1478 C.ar    
   6 C6            -1.3287     2.0358     0.1139 C.ar    
   7 C7            -3.8113     1.8872     0.2326 C.2     
   8 C8            -4.0547     3.2411     0.2794 C.2     
   9 N9            -5.0128     1.2333     0.2723 N.pl3   
  10 C10           -6.0173     2.1682     0.3501 C.2     
  11 C11           -5.4371     3.4195     0.3554 C.2     
  12 C12           -7.4564     1.8847     0.4119 C.2     
  13 S13           -8.7292     3.0980     0.5113 S.3     
  14 N14           -7.9936     0.6904     0.3961 N.2     
  15 C15           -9.2935     0.6183     0.4581 C.2     
  16 C16           -9.9433     1.8204     0.5311 C.2     
  17 O17            1.0383     2.1993    -0.0115 O.3     
  18 C18            0.8562     3.6144    -0.0906 C.3     
  19 C19            2.0903     4.2523    -0.7318 C.3     
  20 O20            3.2214     4.0637     0.1210 O.3     
  21 C21            0.6611     4.1829     1.3164 C.3     
  22 O22           -1.0182    -2.0894    -0.0135 O.3     
  23 C23           -1.4869    -2.7337    -1.1142 C.ar    
  24 C24           -1.9375    -2.0060    -2.2063 C.ar    
  25 C25           -1.5104    -4.1206    -1.1503 C.ar    
  26 C26           -1.9870    -4.7732    -2.2707 C.ar    
  27 C27           -2.4399    -4.0455    -3.3558 C.ar    
  28 C28           -2.4131    -2.6634    -3.3242 C.ar    
  29 S29           -3.0460    -4.8811    -4.7837 S.o2    
  30 C30           -4.8206    -5.0866    -4.4687 C.3     
  31 O31           -2.8313    -3.9613    -5.8454 O.2     
  32 O32           -2.3863    -6.1394    -4.7599 O.2     
  33 C33            4.4329     4.6253    -0.3879 C.3     
  34 C34          -11.3926     2.0117     0.6102 C.2     
  35 N35          -11.9053     3.2563     0.6778 N.am    
  36 O36          -12.1346     1.0466     0.6149 O.2     
  37 C37          -13.3556     3.4477     0.7569 C.3     
  38 C38          -13.6697     4.9437     0.8230 C.3     
  39 H39            0.9909    -0.4149    -0.0761 H       
  40 H40           -3.2622    -0.7542     0.1367 H       
  41 H41           -1.4077     3.1125     0.1455 H       
  42 H42           -3.3108     4.0239     0.2606 H       
  43 H43           -5.1350     0.2713     0.2492 H       
  44 H44           -5.9573     4.3645     0.4086 H       
  45 H45           -9.8209    -0.3241     0.4505 H       
  46 H46           -0.0227     3.8343    -0.6965 H       
  47 H47            2.2811     3.7840    -1.6973 H       
  48 H48            1.9158     5.3189    -0.8734 H       
  49 H49            1.5400     3.9630     1.9223 H       
  50 H50            0.5222     5.2624     1.2560 H       
  51 H51           -0.2181     3.7285     1.7732 H       
  52 H52           -1.9168    -0.9264    -2.1822 H       
  53 H53           -1.1561    -4.6894    -0.3034 H       
  54 H54           -2.0055    -5.8526    -2.2993 H       
  55 H55           -2.7677    -2.0974    -4.1729 H       
  56 H56           -5.2831    -4.1076    -4.3431 H       
  57 H57           -5.2821    -5.6010    -5.3117 H       
  58 H58           -4.9630    -5.6747    -3.5621 H       
  59 H59            5.2434     4.4398     0.3169 H       
  60 H60            4.6724     4.1647    -1.3463 H       
  61 H61            4.3071     5.6996    -0.5224 H       
  62 H62          -11.3141     4.0252     0.6740 H       
  63 H63          -13.8278     3.0159    -0.1256 H       
  64 H64          -13.7387     2.9562     1.6512 H       
  65 H65          -13.1976     5.3754     1.7054 H       
  66 H66          -13.2866     5.4352    -0.0713 H       
  67 H67          -14.7488     5.0861     0.8819 H       
@<TRIPOS>BOND
   1    1    2 ar
   2    1   17 1
   3    1    6 ar
   4    2    3 ar
   5    2   39 1
   6    3    4 ar
   7    3   22 1
   8    4    5 ar
   9    4   40 1
  10    5    6 ar
  11    5    7 1
  12    6   41 1
  13    7    8 2
  14    7    9 1
  15    8   11 1
  16    8   42 1
  17    9   10 1
  18    9   43 1
  19   10   11 2
  20   10   12 1
  21   11   44 1
  22   12   13 1
  23   12   14 2
  24   13   16 1
  25   14   15 1
  26   15   16 2
  27   15   45 1
  28   16   34 1
  29   17   18 1
  30   18   19 1
  31   18   21 1
  32   18   46 1
  33   19   20 1
  34   19   47 1
  35   19   48 1
  36   20   33 1
  37   21   49 1
  38   21   50 1
  39   21   51 1
  40   22   23 1
  41   23   24 ar
  42   23   25 ar
  43   24   28 ar
  44   24   52 1
  45   25   26 ar
  46   25   53 1
  47   26   27 ar
  48   26   54 1
  49   27   28 ar
  50   27   29 1
  51   28   55 1
  52   29   30 1
  53   29   31 2
  54   29   32 2
  55   30   56 1
  56   30   57 1
  57   30   58 1
  58   33   59 1
  59   33   60 1
  60   33   61 1
  61   34   36 2
  62   34   35 am
  63   35   37 1
  64   35   62 1
  65   37   38 1
  66   37   63 1
  67   37   64 1
  68   38   65 1
  69   38   66 1
  70   38   67 1

#	End of record

