#	Name: ASD01180215
#	Creating user name:	WinNT
#	Creation time:	15. 06. 2019 19:07

#	Modifying user name:	WinNT
#	Modification time:	15. 06. 2019 19:07

#	Program:	/corina/corina34_cracker 3.40 0067  02.08.2006

@<TRIPOS>MOLECULE
ASD01180215
  63   67    0    0    0
SMALL
NO_CHARGES


@<TRIPOS>ATOM
   1 C1             5.6792    -4.7218     2.9781 C.3     
   2 C2             5.1119    -3.5502     2.1740 C.3     
   3 C3             6.0179    -2.3290     2.3438 C.3     
   4 N4             5.0463    -3.9175     0.7532 N.3     
   5 C5             6.4059    -3.9916     0.1591 C.3     
   6 C6             6.1755    -3.8410    -1.3599 C.3     
   7 C7             4.8290    -3.0995    -1.4895 C.3     
   8 C8             4.3592    -2.8644    -0.0378 C.3     
   9 H9             4.6613    -1.8744     0.3039 H       
  10 C10            2.8411    -3.0253     0.0644 C.3     
  11 N11            2.4304    -2.9033     1.4654 N.am    
  12 C12            2.2158    -1.6853     2.0011 C.2     
  13 O13            2.4634    -0.6840     1.3549 O.2     
  14 C14            1.6842    -1.5666     3.3615 C.2     
  15 C15            2.5123    -1.7071     4.4148 C.2     
  16 N16            2.0647    -1.6056     5.7048 N.am    
  17 C17            3.0087    -1.7676     6.8134 C.3     
  18 C18            3.6045    -3.1904     6.7965 C.3     
  19 C19            4.9440    -3.0323     6.0351 C.3     
  20 C20            5.4611    -1.6603     6.5345 C.3     
  21 C21            4.1892    -0.7947     6.6468 C.3     
  22 C22            0.7652    -1.3579     5.9672 C.2     
  23 O23            0.3733    -1.2680     7.1158 O.2     
  24 C24           -0.1705    -1.1976     4.8453 C.2     
  25 C25           -1.5067    -0.9472     4.7964 C.2     
  26 Br26          -2.6525    -0.7108     6.2820 Br      
  27 C27           -1.8849    -0.8951     3.4338 C.ar    
  28 C28           -3.1062    -0.6741     2.7831 C.ar    
  29 C29           -3.1602    -0.6826     1.4200 C.ar    
  30 C30           -2.0139    -0.9091     0.6677 C.ar    
  31 C31           -0.8023    -1.1286     1.2825 C.ar    
  32 C32           -0.7201    -1.1246     2.6731 C.ar    
  33 N33            0.3195    -1.3022     3.5525 N.pl3   
  34 H34            4.9933    -5.5671     2.9216 H       
  35 H35            6.6463    -5.0105     2.5664 H       
  36 H36            5.8021    -4.4224     4.0189 H       
  37 H37            4.1110    -3.3129     2.5345 H       
  38 H38            7.0476    -2.6063     2.1182 H       
  39 H39            5.6964    -1.5407     1.6630 H       
  40 H40            5.9550    -1.9699     3.3710 H       
  41 H41            7.0284    -3.1780     0.5317 H       
  42 H42            6.8655    -4.9549     0.3803 H       
  43 H43            6.9763    -3.2527    -1.8079 H       
  44 H44            6.1148    -4.8213    -1.8326 H       
  45 H45            4.9689    -2.1472    -2.0011 H       
  46 H46            4.1074    -3.7158    -2.0258 H       
  47 H47            2.3530    -2.2500    -0.5261 H       
  48 H48            2.5534    -4.0059    -0.3145 H       
  49 H49            2.3129    -3.6991     2.0074 H       
  50 H50            3.5588    -1.9058     4.2367 H       
  51 H51            2.5048    -1.5842     7.7623 H       
  52 H52            3.7825    -3.5416     7.8129 H       
  53 H53            2.9426    -3.8749     6.2659 H       
  54 H54            5.6381    -3.8283     6.3051 H       
  55 H55            4.7764    -3.0133     4.9583 H       
  56 H56            5.9390    -1.7644     7.5086 H       
  57 H57            6.1542    -1.2282     5.8127 H       
  58 H58            4.0597    -0.2021     5.7412 H       
  59 H59            4.2587    -0.1398     7.5153 H       
  60 H60           -4.0024    -0.4979     3.3593 H       
  61 H61           -4.1026    -0.5121     0.9210 H       
  62 H62           -2.0746    -0.9131    -0.4106 H       
  63 H63            0.0824    -1.3040     0.6884 H       
@<TRIPOS>BOND
   1    1    2 1
   2    1   34 1
   3    1   35 1
   4    1   36 1
   5    2    3 1
   6    2    4 1
   7    2   37 1
   8    3   38 1
   9    3   39 1
  10    3   40 1
  11    4    8 1
  12    4    5 1
  13    5    6 1
  14    5   41 1
  15    5   42 1
  16    6    7 1
  17    6   43 1
  18    6   44 1
  19    7    8 1
  20    7   45 1
  21    7   46 1
  22    8    9 1
  23    8   10 1
  24   10   11 1
  25   10   47 1
  26   10   48 1
  27   11   12 am
  28   11   49 1
  29   12   13 2
  30   12   14 1
  31   14   33 1
  32   14   15 2
  33   15   16 1
  34   15   50 1
  35   16   17 1
  36   16   22 am
  37   17   21 1
  38   17   18 1
  39   17   51 1
  40   18   19 1
  41   18   52 1
  42   18   53 1
  43   19   20 1
  44   19   54 1
  45   19   55 1
  46   20   21 1
  47   20   56 1
  48   20   57 1
  49   21   58 1
  50   21   59 1
  51   22   23 2
  52   22   24 1
  53   24   33 1
  54   24   25 2
  55   25   26 1
  56   25   27 1
  57   27   32 ar
  58   27   28 ar
  59   28   29 ar
  60   28   60 1
  61   29   30 ar
  62   29   61 1
  63   30   31 ar
  64   30   62 1
  65   31   32 ar
  66   31   63 1
  67   32   33 1

#	End of record

