#	Name: ASD01208575
#	Creating user name:	WinNT
#	Creation time:	15. 06. 2019 19:10

#	Modifying user name:	WinNT
#	Modification time:	15. 06. 2019 19:10

#	Program:	/corina/corina34_cracker 3.40 0067  02.08.2006

@<TRIPOS>MOLECULE
ASD01208575
  16   16    0    0    0
SMALL
NO_CHARGES


@<TRIPOS>ATOM
   1 C1            -0.0168     1.3864     0.0097 C.ar    
   2 C2             0.0021    -0.0041     0.0020 C.ar    
   3 N3             1.1231     2.0656     0.0024 N.ar    
   4 N4             1.1548    -0.6489    -0.0125 N.ar    
   5 C5             2.2954     0.0306    -0.0198 C.ar    
   6 C6             2.2762     1.4211    -0.0121 C.ar    
   7 N7            -1.2331     2.0666     0.0191 N.pl3   
   8 S8             3.8332    -0.8293    -0.0386 S.3     
   9 C9             3.3267    -2.5712    -0.0426 C.3     
  10 H10           -0.9258    -0.5567     0.0083 H       
  11 H11            3.2039     1.9741    -0.0183 H       
  12 H12           -2.0664     1.5702     0.0204 H       
  13 H13           -1.2463     3.0365     0.0245 H       
  14 H14            2.7403    -2.7811     0.8519 H       
  15 H15            2.7236    -2.7721    -0.9280 H       
  16 H16            4.2121    -3.2069    -0.0541 H       
@<TRIPOS>BOND
   1    1    2 ar
   2    1    3 ar
   3    1    7 1
   4    2    4 ar
   5    2   10 1
   6    3    6 ar
   7    4    5 ar
   8    5    6 ar
   9    5    8 1
  10    6   11 1
  11    7   12 1
  12    7   13 1
  13    8    9 1
  14    9   14 1
  15    9   15 1
  16    9   16 1

#	End of record

