#	Name: ASD01910525
#	Creating user name:	WinNT
#	Creation time:	15. 06. 2019 19:56

#	Modifying user name:	WinNT
#	Modification time:	15. 06. 2019 19:56

#	Program:	/corina/corina34_cracker 3.40 0067  02.08.2006

@<TRIPOS>MOLECULE
ASD01910525
  41   44    0    0    0
SMALL
NO_CHARGES


@<TRIPOS>ATOM
   1 N1             0.0804     0.1650     0.1038 N.2     
   2 C2             0.1249    -1.0138     0.6710 C.2     
   3 N3             1.4303    -1.3157     0.8613 N.2     
   4 C4             2.0997    -0.2921     0.3935 C.2     
   5 O5             1.2043     0.5903    -0.0611 O.3     
   6 C6            -1.0347    -1.8582     1.0358 C.2     
   7 N7            -0.9763    -3.0406     1.6062 N.2     
   8 C8            -2.2164    -3.5046     1.7861 C.2     
   9 C9            -3.0868    -2.5864     1.3146 C.2     
  10 N10           -2.3470    -1.5392     0.8426 N.pl3   
  11 C11            3.9964     1.1025     1.1787 C.3     
  12 C12            3.5986    -0.1376     0.3721 C.3     
  13 C13            4.0748     0.0245    -1.0733 C.3     
  14 C14            5.5999     0.1486    -1.0989 C.3     
  15 C15            6.0204     1.3920    -0.3089 C.3     
  16 N16            5.4439     1.3124     1.0402 N.am    
  17 C17            6.2282     1.4294     2.1300 C.2     
  18 C18            7.6920     1.5557     1.9765 C.ar    
  19 O19            5.7310     1.4309     3.2394 O.2     
  20 C20            8.2255     2.5034     1.1005 C.ar    
  21 C21            9.5921     2.6174     0.9614 C.ar    
  22 C22           10.4367     1.7931     1.6894 C.ar    
  23 C23            9.9123     0.8502     2.5602 C.ar    
  24 C24            8.5473     0.7317     2.7112 C.ar    
  25 F25           11.7754     1.9090     1.5493 F       
  26 H26           -2.4779    -4.4527     2.2324 H       
  27 H27           -4.1640    -2.6635     1.3142 H       
  28 H28           -2.6898    -0.7253     0.4414 H       
  29 H29            3.4627     1.9731     0.7973 H       
  30 H30            3.7480     0.9504     2.2290 H       
  31 H31            4.0622    -1.0212     0.8109 H       
  32 H32            3.7714    -0.8458    -1.6553 H       
  33 H33            3.6302     0.9218    -1.5036 H       
  34 H34            6.0447    -0.7376    -0.6462 H       
  35 H35            5.9402     0.2405    -2.1303 H       
  36 H36            7.1075     1.4308    -0.2401 H       
  37 H37            5.6518     2.2861    -0.8116 H       
  38 H38            7.5686     3.1456     0.5328 H       
  39 H39           10.0058     3.3497     0.2840 H       
  40 H40           10.5746     0.2104     3.1245 H       
  41 H41            8.1399    -0.0029     3.3900 H       
@<TRIPOS>BOND
   1    1    2 2
   2    1    5 1
   3    2    3 1
   4    2    6 1
   5    3    4 2
   6    4    5 1
   7    4   12 1
   8    6    7 2
   9    6   10 1
  10    7    8 1
  11    8    9 2
  12    8   26 1
  13    9   10 1
  14    9   27 1
  15   10   28 1
  16   11   12 1
  17   11   16 1
  18   11   29 1
  19   11   30 1
  20   12   13 1
  21   12   31 1
  22   13   14 1
  23   13   32 1
  24   13   33 1
  25   14   15 1
  26   14   34 1
  27   14   35 1
  28   15   16 1
  29   15   36 1
  30   15   37 1
  31   16   17 am
  32   17   18 1
  33   17   19 2
  34   18   20 ar
  35   18   24 ar
  36   20   21 ar
  37   20   38 1
  38   21   22 ar
  39   21   39 1
  40   22   23 ar
  41   22   25 1
  42   23   24 ar
  43   23   40 1
  44   24   41 1

#	End of record

