#	Name: ASD01208564
#	Creating user name:	WinNT
#	Creation time:	15. 06. 2019 19:10

#	Modifying user name:	WinNT
#	Modification time:	15. 06. 2019 19:10

#	Program:	/corina/corina34_cracker 3.40 0067  02.08.2006

@<TRIPOS>MOLECULE
ASD01208564
  63   63    0    0    0
SMALL
NO_CHARGES


@<TRIPOS>ATOM
   1 C1             4.2566     0.6654     0.9571 C.2     
   2 N2             2.9236     0.8631     0.9833 N.am    
   3 O3             4.7711     0.0912     0.0076 O.co2   
   4 O4             4.9522     1.0646     1.8805 O.co2   
   5 C5             2.1343    -1.0281    -0.3515 C.3     
   6 C6             2.1051     0.4912    -0.1734 C.3     
   7 C7             2.6628     1.1628    -1.4299 C.3     
   8 C8             1.7666     0.8327    -2.6252 C.3     
   9 O9             2.3599     1.3432    -3.8208 O.3     
  10 Si10           1.5397     0.9697    -5.1802 Si      
  11 C11           -1.0632     1.3339    -4.2834 C.3     
  12 C12           -0.0422     1.9519    -5.2407 C.3     
  13 C13            0.2385     3.3970    -4.8236 C.3     
  14 C14            1.6967     1.4338    -7.9137 C.3     
  15 C15            2.5832     1.3807    -6.6678 C.3     
  16 C16            3.2536     2.7403    -6.4606 C.3     
  17 C17            0.2440    -1.1728    -6.3813 C.3     
  18 C18            1.1412    -0.8502    -5.1848 C.3     
  19 C19            2.4378    -1.6559    -5.2877 C.3     
  20 O20            2.6981     2.5784    -1.2376 O.3     
  21 C21            2.2933     1.4498     2.1684 C.3     
  22 C22            2.3569     2.9528     2.0791 C.ar    
  23 C23            1.3481     3.6506     1.4416 C.ar    
  24 C24            1.4065     5.0293     1.3597 C.ar    
  25 C25            2.4733     5.7102     1.9156 C.ar    
  26 C26            3.4816     5.0125     2.5538 C.ar    
  27 C27            3.4211     3.6341     2.6396 C.ar    
  28 H28            1.5253    -1.3048    -1.2122 H       
  29 H29            3.1614    -1.3554    -0.5130 H       
  30 H30            1.7369    -1.5066     0.5436 H       
  31 H31            1.0780     0.8185    -0.0120 H       
  32 H32            3.6717     0.7967    -1.6202 H       
  33 H33            1.6550    -0.2484    -2.7080 H       
  34 H34            0.7872     1.2892    -2.4820 H       
  35 H35           -2.0136     1.8593    -4.3772 H       
  36 H36           -1.2036     0.2819    -4.5316 H       
  37 H37           -0.6999     1.4203    -3.2594 H       
  38 H38           -0.4403     1.9374    -6.2553 H       
  39 H39            0.8721     3.8744    -5.5711 H       
  40 H40           -0.7025     3.9413    -4.7437 H       
  41 H41            0.7458     3.4047    -3.8589 H       
  42 H42            0.9593     2.2286    -7.8013 H       
  43 H43            2.3135     1.6316    -8.7903 H       
  44 H44            1.1858     0.4789    -8.0369 H       
  45 H45            3.3477     0.6147    -6.7981 H       
  46 H46            2.4906     3.4986    -6.2850 H       
  47 H47            3.9201     2.6893    -5.5996 H       
  48 H48            3.8277     3.0015    -7.3495 H       
  49 H49            0.8118    -1.0530    -7.3040 H       
  50 H50           -0.1099    -2.2008    -6.3034 H       
  51 H51           -0.6092    -0.4944    -6.3891 H       
  52 H52            0.6236    -1.1111    -4.2617 H       
  53 H53            2.9098    -1.4633    -6.2511 H       
  54 H54            3.1143    -1.3596    -4.4860 H       
  55 H55            2.2131    -2.7188    -5.1992 H       
  56 H56            1.8252     2.9859    -1.1544 H       
  57 H57            1.2517     1.1327     2.2206 H       
  58 H58            2.8198     1.1164     3.0627 H       
  59 H59            0.5146     3.1187     1.0073 H       
  60 H60            0.6187     5.5744     0.8610 H       
  61 H61            2.5193     6.7873     1.8509 H       
  62 H62            4.3153     5.5444     2.9878 H       
  63 H63            4.2070     3.0893     3.1415 H       
@<TRIPOS>BOND
   1    1    2 am
   2    1    3 ar
   3    1    4 ar
   4    2    6 1
   5    2   21 1
   6    5    6 1
   7    5   28 1
   8    5   29 1
   9    5   30 1
  10    6    7 1
  11    6   31 1
  12    7    8 1
  13    7   20 1
  14    7   32 1
  15    8    9 1
  16    8   33 1
  17    8   34 1
  18    9   10 1
  19   10   12 1
  20   10   15 1
  21   10   18 1
  22   11   12 1
  23   11   35 1
  24   11   36 1
  25   11   37 1
  26   12   13 1
  27   12   38 1
  28   13   39 1
  29   13   40 1
  30   13   41 1
  31   14   15 1
  32   14   42 1
  33   14   43 1
  34   14   44 1
  35   15   16 1
  36   15   45 1
  37   16   46 1
  38   16   47 1
  39   16   48 1
  40   17   18 1
  41   17   49 1
  42   17   50 1
  43   17   51 1
  44   18   19 1
  45   18   52 1
  46   19   53 1
  47   19   54 1
  48   19   55 1
  49   20   56 1
  50   21   22 1
  51   21   57 1
  52   21   58 1
  53   22   23 ar
  54   22   27 ar
  55   23   24 ar
  56   23   59 1
  57   24   25 ar
  58   24   60 1
  59   25   26 ar
  60   25   61 1
  61   26   27 ar
  62   26   62 1
  63   27   63 1

#	End of record

