#	Name: ASD00844668
#	Creating user name:	WinNT
#	Creation time:	15. 06. 2019 18:50

#	Modifying user name:	WinNT
#	Modification time:	15. 06. 2019 18:50

#	Program:	/corina/corina34_cracker 3.40 0067  02.08.2006

@<TRIPOS>MOLECULE
ASD00844668
  95  100    0    0    0
SMALL
NO_CHARGES


@<TRIPOS>ATOM
   1 C1             0.7437     1.1348    -0.2810 C.ar    
   2 C2             0.9541    -0.2038    -0.5773 C.ar    
   3 C3             0.8051    -1.1631     0.4141 C.ar    
   4 C4             0.4479    -0.7831     1.6931 C.ar    
   5 C5             0.2383     0.5521     1.9858 C.ar    
   6 C6             0.3865     1.5098     0.9999 C.ar    
   7 C7             1.0324    -2.6184     0.0956 C.3     
   8 C8             0.6828    -3.4834     1.2878 C.2     
   9 C9             0.2113    -3.0330    -1.1270 C.3     
  10 C10           -1.2390    -2.6946    -0.8964 C.2     
  11 N11           -2.1699    -3.0703    -1.7957 N.am    
  12 O12           -1.5685    -2.0842     0.0985 O.2     
  13 C13           -3.5730    -2.6547    -1.6483 C.3     
  14 C14           -4.0388    -2.0359    -2.9705 C.3     
  15 N15           -3.7825    -2.9799    -4.0665 N.3     
  16 C16           -2.3448    -3.2388    -4.2215 C.3     
  17 C17           -1.8084    -3.9018    -2.9538 C.3     
  18 C18           -4.3693    -2.4984    -5.3241 C.3     
  19 C19           -3.9775    -3.4409    -6.4655 C.3     
  20 C20           -4.6412    -2.9687    -7.7611 C.3     
  21 N21           -6.0996    -2.9582    -7.5899 N.3     
  22 C22           -6.5031    -2.0244    -6.5308 C.3     
  23 C23           -5.8950    -2.4684    -5.1985 C.3     
  24 C24           -6.7760    -2.6433    -8.8553 C.3     
  25 O25           -0.4054    -3.5771     1.8151 O.2     
  26 N26            1.8035    -4.1284     1.6518 N.am    
  27 C27            2.5024    -2.8875    -0.1335 C.ar    
  28 C28            2.8882    -3.8037     0.8420 C.ar    
  29 C29            3.4023    -2.4142    -1.0544 C.ar    
  30 C30            4.7303    -2.8542    -1.0196 C.ar    
  31 C31            5.1254    -3.7752    -0.0419 C.ar    
  32 C32            4.2113    -4.2442     0.8771 C.ar    
  33 F33            6.4052    -4.2061     0.0002 F       
  34 C34            1.5185    -6.7914     2.2856 C.ar    
  35 C35            0.2578    -7.0636     1.7750 C.ar    
  36 C36            2.4878    -7.7759     2.2906 C.ar    
  37 C37            2.2023    -9.0312     1.7868 C.ar    
  38 C38            0.9463    -9.3051     1.2772 C.ar    
  39 C39           -0.0264    -8.3245     1.2704 C.ar    
  40 H40            0.7257   -10.2866     0.8842 H       
  41 O41           -0.6975    -6.0970     1.7695 O.3     
  42 C42           -1.9726    -6.4483     1.2283 C.3     
  43 C43           -2.9099    -5.2415     1.3069 C.3     
  44 C44           -8.2793    -2.8839    -8.7036 C.3     
  45 C45            5.6775    -2.3667    -1.9766 C.1     
  46 N46            6.4288    -1.9799    -2.7358 N.1     
  47 O47            1.3051    -0.5753    -1.8365 O.3     
  48 C48            1.3661     0.4560    -2.8238 C.3     
  49 C49            1.8610    -0.1329    -4.1464 C.3     
  50 F50            3.0942    -0.7618    -3.9445 F       
  51 F51            0.9324    -1.0674    -4.6173 F       
  52 S52            1.8856    -5.1893     2.9207 S.o2    
  53 O53            3.2462    -5.2218     3.3293 O.2     
  54 O54            0.8189    -4.8508     3.7964 O.2     
  55 H55            0.8634     1.8838    -1.0499 H       
  56 H56            0.3318    -1.5293     2.4651 H       
  57 H57           -0.0417     0.8472     2.9863 H       
  58 H58            0.2223     2.5520     1.2310 H       
  59 H59            0.5736    -2.4996    -2.0058 H       
  60 H60            0.3131    -4.1065    -1.2860 H       
  61 H61           -4.1892    -3.5225    -1.4130 H       
  62 H62           -3.6544    -1.9170    -0.8500 H       
  63 H63           -5.1064    -1.8228    -2.9162 H       
  64 H64           -3.4917    -1.1108    -3.1519 H       
  65 H65           -2.1839    -3.8981    -5.0744 H       
  66 H66           -1.8213    -2.2969    -4.3854 H       
  67 H67           -0.7240    -3.9912    -3.0182 H       
  68 H68           -2.2541    -4.8901    -2.8408 H       
  69 H69           -4.0007    -1.4951    -5.5375 H       
  70 H70           -2.8944    -3.4337    -6.5878 H       
  71 H71           -4.3113    -4.4522    -6.2332 H       
  72 H72           -4.2963    -1.9628    -8.0001 H       
  73 H73           -4.3757    -3.6460    -8.5729 H       
  74 H74           -6.1495    -1.0229    -6.7756 H       
  75 H75           -7.5900    -2.0158    -6.4490 H       
  76 H76           -6.2590    -3.4644    -4.9462 H       
  77 H77           -6.1820    -1.7664    -4.4156 H       
  78 H78           -6.5992    -1.5987    -9.1115 H       
  79 H79           -6.3836    -3.2827    -9.6460 H       
  80 H80            3.0866    -1.7042    -1.8045 H       
  81 H81            4.5214    -4.9547     1.6291 H       
  82 H82            3.4695    -7.5645     2.6880 H       
  83 H83            2.9616    -9.7993     1.7909 H       
  84 H84           -1.0074    -8.5390     0.8730 H       
  85 H85           -1.8550    -6.7498     0.1875 H       
  86 H86           -2.3951    -7.2743     1.8004 H       
  87 H87           -2.4875    -4.4155     0.7348 H       
  88 H88           -3.8825    -5.5094     0.8941 H       
  89 H89           -3.0275    -4.9400     2.3477 H       
  90 H90           -8.6717    -2.2444    -7.9130 H       
  91 H91           -8.7812    -2.6502    -9.6426 H       
  92 H92           -8.4560    -3.9285    -8.4474 H       
  93 H93            0.3732     0.8829    -2.9651 H       
  94 H94            2.0530     1.2351    -2.4934 H       
  95 H95            1.9762     0.6658    -4.8792 H       
@<TRIPOS>BOND
   1    1    2 ar
   2    1    6 ar
   3    1   55 1
   4    2    3 ar
   5    2   47 1
   6    3    4 ar
   7    3    7 1
   8    4    5 ar
   9    4   56 1
  10    5    6 ar
  11    5   57 1
  12    6   58 1
  13    7    8 1
  14    7    9 1
  15    7   27 1
  16    8   25 2
  17    8   26 am
  18    9   10 1
  19    9   59 1
  20    9   60 1
  21   10   11 am
  22   10   12 2
  23   11   13 1
  24   11   17 1
  25   13   14 1
  26   13   61 1
  27   13   62 1
  28   14   15 1
  29   14   63 1
  30   14   64 1
  31   15   16 1
  32   15   18 1
  33   16   17 1
  34   16   65 1
  35   16   66 1
  36   17   67 1
  37   17   68 1
  38   18   19 1
  39   18   23 1
  40   18   69 1
  41   19   20 1
  42   19   70 1
  43   19   71 1
  44   20   21 1
  45   20   72 1
  46   20   73 1
  47   21   22 1
  48   21   24 1
  49   22   23 1
  50   22   74 1
  51   22   75 1
  52   23   76 1
  53   23   77 1
  54   24   44 1
  55   24   78 1
  56   24   79 1
  57   26   52 am
  58   26   28 1
  59   27   28 ar
  60   27   29 ar
  61   28   32 ar
  62   29   30 ar
  63   29   80 1
  64   30   31 ar
  65   30   45 1
  66   31   32 ar
  67   31   33 1
  68   32   81 1
  69   34   35 ar
  70   34   36 ar
  71   34   52 1
  72   35   41 1
  73   35   39 ar
  74   36   37 ar
  75   36   82 1
  76   37   38 ar
  77   37   83 1
  78   38   39 ar
  79   38   40 1
  80   39   84 1
  81   41   42 1
  82   42   43 1
  83   42   85 1
  84   42   86 1
  85   43   87 1
  86   43   88 1
  87   43   89 1
  88   44   90 1
  89   44   91 1
  90   44   92 1
  91   45   46 3
  92   47   48 1
  93   48   49 1
  94   48   93 1
  95   48   94 1
  96   49   50 1
  97   49   51 1
  98   49   95 1
  99   52   53 2
 100   52   54 2

#	End of record

