#	Name: ASD03430395
#	Creating user name:	WinNT
#	Creation time:	15. 06. 2019 20:41

#	Modifying user name:	WinNT
#	Modification time:	15. 06. 2019 20:41

#	Program:	/corina/corina34_cracker 3.40 0067  02.08.2006

@<TRIPOS>MOLECULE
ASD03430395
  57   62    0    0    0
SMALL
NO_CHARGES


@<TRIPOS>ATOM
   1 N1            -0.0156     1.4931     0.4900 N.am    
   2 C2             0.0410     0.2264     0.9345 C.2     
   3 C3             1.4805    -0.0489     1.3137 C.3     
   4 C4             2.1947     1.2485     1.0114 C.ar    
   5 C5             3.5074     1.6451     1.1357 C.ar    
   6 C6             3.8791     2.9269     0.7709 C.ar    
   7 C7             2.9274     3.8067     0.2815 C.ar    
   8 C8             1.6098     3.4103     0.1567 C.ar    
   9 C9             1.2303     2.1205     0.5222 C.ar    
  10 O10           -0.8869    -0.5504     1.0168 O.2     
  11 O11            1.9491    -1.4956     6.7419 O.3     
  12 C12            2.9074    -2.5663     6.6968 C.3     
  13 C13            2.7490    -3.1077     5.2563 C.3     
  14 C14            2.2149    -1.8928     4.5222 C.ar    
  15 C15            1.7739    -0.9958     5.4878 C.ar    
  16 C16            1.2415     0.2237     5.0806 C.ar    
  17 C17            1.1488     0.5281     3.7331 C.ar    
  18 C18            1.5861    -0.3805     2.7800 C.ar    
  19 C19            2.1189    -1.5919     3.1814 C.ar    
  20 O20            0.6271     1.7206     3.3426 O.3     
  21 O21            2.0133    -1.1106     0.5194 O.3     
  22 F22            3.2895     5.0585    -0.0749 F       
  23 C23           -1.2434     2.1394     0.0198 C.3     
  24 C24           -0.9993     2.7577    -1.3327 C.ar    
  25 C25           -1.5153     4.0064    -1.6251 C.ar    
  26 C26           -1.2915     4.5735    -2.8657 C.ar    
  27 C27           -0.5512     3.8923    -3.8137 C.ar    
  28 C28           -0.0344     2.6440    -3.5210 C.ar    
  29 C29           -0.2546     2.0787    -2.2789 C.ar    
  30 C30           -2.3417     1.1132    -0.0879 C.ar    
  31 C31           -3.4804     1.2356     0.6863 C.ar    
  32 C32           -4.4878     0.2942     0.5876 C.ar    
  33 C33           -4.3569    -0.7693    -0.2857 C.ar    
  34 C34           -3.2186    -0.8912    -1.0606 C.ar    
  35 C35           -2.2131     0.0525    -0.9650 C.ar    
  36 H36            4.2462     0.9564     1.5180 H       
  37 H37            4.9079     3.2408     0.8677 H       
  38 H38            0.8729     4.1013    -0.2252 H       
  39 H39            3.9168    -2.1881     6.8584 H       
  40 H40            2.6608    -3.3362     7.4279 H       
  41 H41            3.7113    -3.4174     4.8485 H       
  42 H42            2.0321    -3.9282     5.2250 H       
  43 H43            0.8998     0.9350     5.8180 H       
  44 H44            2.4607    -2.3023     2.4432 H       
  45 H45            1.2819     2.4268     3.2557 H       
  46 H46            1.5523    -1.9535     0.6292 H       
  47 H47           -1.5390     2.9153     0.7260 H       
  48 H48           -2.0937     4.5387    -0.8844 H       
  49 H49           -1.6952     5.5488    -3.0944 H       
  50 H50           -0.3769     4.3351    -4.7832 H       
  51 H51            0.5436     2.1116    -4.2618 H       
  52 H52            0.1522     1.1051    -2.0489 H       
  53 H53           -3.5827     2.0665     1.3686 H       
  54 H54           -5.3771     0.3895     1.1930 H       
  55 H55           -5.1437    -1.5051    -0.3623 H       
  56 H56           -3.1162    -1.7223    -1.7426 H       
  57 H57           -1.3254    -0.0407    -1.5731 H       
@<TRIPOS>BOND
   1    1    2 am
   2    1    9 1
   3    1   23 1
   4    2    3 1
   5    2   10 2
   6    3    4 1
   7    3   18 1
   8    3   21 1
   9    4    5 ar
  10    4    9 ar
  11    5    6 ar
  12    5   36 1
  13    6    7 ar
  14    6   37 1
  15    7    8 ar
  16    7   22 1
  17    8    9 ar
  18    8   38 1
  19   11   12 1
  20   11   15 1
  21   12   13 1
  22   12   39 1
  23   12   40 1
  24   13   14 1
  25   13   41 1
  26   13   42 1
  27   14   15 ar
  28   14   19 ar
  29   15   16 ar
  30   16   17 ar
  31   16   43 1
  32   17   18 ar
  33   17   20 1
  34   18   19 ar
  35   19   44 1
  36   20   45 1
  37   21   46 1
  38   23   24 1
  39   23   30 1
  40   23   47 1
  41   24   25 ar
  42   24   29 ar
  43   25   26 ar
  44   25   48 1
  45   26   27 ar
  46   26   49 1
  47   27   28 ar
  48   27   50 1
  49   28   29 ar
  50   28   51 1
  51   29   52 1
  52   30   31 ar
  53   30   35 ar
  54   31   32 ar
  55   31   53 1
  56   32   33 ar
  57   32   54 1
  58   33   34 ar
  59   33   55 1
  60   34   35 ar
  61   34   56 1
  62   35   57 1

#	End of record

