#	Name: ASD03930095
#	Creating user name:	WinNT
#	Creation time:	15. 06. 2019 20:47

#	Modifying user name:	WinNT
#	Modification time:	15. 06. 2019 20:47

#	Program:	/corina/corina34_cracker 3.40 0067  02.08.2006

@<TRIPOS>MOLECULE
ASD03930095
  29   31    0    0    0
SMALL
NO_CHARGES


@<TRIPOS>ATOM
   1 C1             2.3497     1.3989    -0.3166 C.ar    
   2 C2             2.3637     0.0214    -0.3055 C.ar    
   3 C3             1.2199    -0.6864     0.0391 C.ar    
   4 C4             0.0506    -0.0036     0.3764 C.ar    
   5 C5             0.0308     1.3775     0.3675 C.ar    
   6 C6             1.1822     2.0885     0.0199 C.ar    
   7 O7             0.9807    -2.0262     0.1238 O.3     
   8 C8            -0.2187    -2.1548     0.9097 C.3     
   9 O9            -0.9183    -0.9191     0.6722 O.3     
  10 C10            1.1655     3.5644     0.0093 C.2     
  11 O11            2.2089     4.1847     0.0788 O.2     
  12 C12           -0.1787     5.6811     0.0222 C.3     
  13 N13           -0.0063     4.2245    -0.0775 N.am    
  14 C14           -1.3275     3.6054    -0.2889 C.3     
  15 C15           -2.1933     4.7243    -0.9200 C.3     
  16 C16           -1.6817     5.9784    -0.1630 C.3     
  17 H17            3.2426     1.9458    -0.5812 H       
  18 H18            3.2673    -0.5098    -0.5660 H       
  19 H19           -0.8738     1.9071     0.6277 H       
  20 H20           -0.8118    -3.0026     0.5671 H       
  21 H21            0.0256    -2.2594     1.9669 H       
  22 H22            0.1496     6.0271     1.0023 H       
  23 H23            0.3963     6.1768    -0.7599 H       
  24 H24           -1.2452     2.7592    -0.9710 H       
  25 H25           -1.7538     3.2869     0.6623 H       
  26 H26           -2.0029     4.8091    -1.9899 H       
  27 H27           -3.2524     4.5555    -0.7254 H       
  28 H28           -2.1776     6.0748     0.8029 H       
  29 H29           -1.8260     6.8767    -0.7632 H       
@<TRIPOS>BOND
   1    1    2 ar
   2    1    6 ar
   3    1   17 1
   4    2    3 ar
   5    2   18 1
   6    3    4 ar
   7    3    7 1
   8    4    5 ar
   9    4    9 1
  10    5    6 ar
  11    5   19 1
  12    6   10 1
  13    7    8 1
  14    8    9 1
  15    8   20 1
  16    8   21 1
  17   10   11 2
  18   10   13 am
  19   12   13 1
  20   12   16 1
  21   12   22 1
  22   12   23 1
  23   13   14 1
  24   14   15 1
  25   14   24 1
  26   14   25 1
  27   15   16 1
  28   15   26 1
  29   15   27 1
  30   16   28 1
  31   16   29 1

#	End of record

