#	Name: ASD04590251
#	Creating user name:	WinNT
#	Creation time:	15. 06. 2019 20:50

#	Modifying user name:	WinNT
#	Modification time:	15. 06. 2019 20:50

#	Program:	/corina/corina34_cracker 3.40 0067  02.08.2006

@<TRIPOS>MOLECULE
ASD04590251
  42   44    0    0    0
SMALL
NO_CHARGES


@<TRIPOS>ATOM
   1 N1            -0.0169     1.3950     0.0097 N.pl3   
   2 N2             0.0021    -0.0041     0.0020 N.2     
   3 C3             1.2467    -0.4104    -0.0120 C.2     
   4 C4             2.0789     0.7381    -0.0138 C.2     
   5 C5             1.2484     1.8413     0.0000 C.2     
   6 N6             1.6782    -1.7390    -0.0229 N.am    
   7 C7             3.5511     0.7515    -0.0274 C.2     
   8 O8             4.1688    -0.2961    -0.0385 O.2     
   9 N9             4.2143     1.9248    -0.0275 N.am    
  10 C10            5.6792     1.9382    -0.0410 C.3     
  11 C11            6.1733     3.2539    -0.6487 C.3     
  12 C12            7.7027     3.2881    -0.6043 C.3     
  13 N13            8.1560     3.1703     0.7874 N.3     
  14 C14            7.7337     1.8935     1.3772 C.3     
  15 C15            6.2053     1.8177     1.3920 C.3     
  16 C16            0.7763    -2.7405    -0.0197 C.2     
  17 O17           -0.4126    -2.4877    -0.0074 O.2     
  18 C18            1.2330    -4.1464    -0.0312 C.ar    
  19 C19            0.3013    -5.1855    -0.0279 C.ar    
  20 C20            0.7338    -6.4980    -0.0392 C.ar    
  21 C21            2.0894    -6.7832    -0.0537 C.ar    
  22 C22            3.0186    -5.7557    -0.0570 C.ar    
  23 C23            2.5973    -4.4395    -0.0512 C.ar    
  24 F24           -0.1670    -7.5048    -0.0356 F       
  25 F25            4.3391    -6.0410    -0.0707 F       
  26 H26           -0.8125     1.9499     0.0166 H       
  27 H27            1.5606     2.8752     0.0023 H       
  28 H28            2.6270    -1.9407    -0.0327 H       
  29 H29            3.7217     2.7604    -0.0186 H       
  30 H30            6.0457     1.1018    -0.6361 H       
  31 H31            5.8376     3.3257    -1.6832 H       
  32 H32            5.7739     4.0916    -0.0769 H       
  33 H33            8.1016     2.4582    -1.1877 H       
  34 H34            8.0572     4.2298    -1.0233 H       
  35 H35            9.1563     3.2855     0.8529 H       
  36 H36            8.1324     1.0701     0.7845 H       
  37 H37            8.1107     1.8223     2.3974 H       
  38 H38            5.8063     2.6327     1.9959 H       
  39 H39            5.8923     0.8633     1.8154 H       
  40 H40           -0.7558    -4.9643    -0.0163 H       
  41 H41            2.4230    -7.8103    -0.0621 H       
  42 H42            3.3226    -3.6393    -0.0541 H       
@<TRIPOS>BOND
   1    1    2 1
   2    1    5 1
   3    1   26 1
   4    2    3 2
   5    3    4 1
   6    3    6 1
   7    4    5 2
   8    4    7 1
   9    5   27 1
  10    6   16 am
  11    6   28 1
  12    7    8 2
  13    7    9 am
  14    9   10 1
  15    9   29 1
  16   10   11 1
  17   10   15 1
  18   10   30 1
  19   11   12 1
  20   11   31 1
  21   11   32 1
  22   12   13 1
  23   12   33 1
  24   12   34 1
  25   13   14 1
  26   13   35 1
  27   14   15 1
  28   14   36 1
  29   14   37 1
  30   15   38 1
  31   15   39 1
  32   16   17 2
  33   16   18 1
  34   18   19 ar
  35   18   23 ar
  36   19   20 ar
  37   19   40 1
  38   20   21 ar
  39   20   24 1
  40   21   22 ar
  41   21   41 1
  42   22   23 ar
  43   22   25 1
  44   23   42 1

#	End of record

