#	Name: ASD05143075
#	Creating user name:	WinNT
#	Creation time:	15. 06. 2019 20:57

#	Modifying user name:	WinNT
#	Modification time:	15. 06. 2019 20:57

#	Program:	/corina/corina34_cracker 3.40 0067  02.08.2006

@<TRIPOS>MOLECULE
ASD05143075
 157  161    0    0    0
SMALL
NO_CHARGES


@<TRIPOS>ATOM
   1 C1            -2.5225     2.1872     3.3121 C.2     
   2 C2            -2.2730     0.9159     4.0818 C.3     
   3 N3            -1.4918     2.9941     2.9914 N.am    
   4 O4            -3.6503     2.4817     2.9770 O.2     
   5 C5            -1.7343     4.2300     2.2431 C.3     
   6 C6            -2.3732     3.8926     0.8944 C.3     
   7 C7            -2.6620     5.1197     3.0299 C.2     
   8 C8            -1.3817     3.0938     0.0461 C.3     
   9 C9            -2.0206     2.7564    -1.3026 C.3     
  10 N10           -1.0712     1.9915    -2.1150 N.pl3   
  11 C11           -1.4259     1.5739    -3.3759 C.2     
  12 N12           -0.5349     0.8561    -4.1383 N.pl3   
  13 N13           -2.6067     1.8585    -3.8486 N.2     
  14 O14           -3.3595     4.6478     3.9027 O.2     
  15 N15           -2.7166     6.4398     2.7635 N.am    
  16 C16           -3.6184     7.3046     3.5283 C.3     
  17 C17           -2.7983     8.2032     4.4561 C.3     
  18 C18           -1.7502     7.3618     5.1868 C.3     
  19 C19           -0.4964     7.2864     4.3543 C.2     
  20 N20            0.7104     7.4863     4.9629 N.am    
  21 C21            1.8919     7.3887     4.0758 C.3     
  22 C22            2.1619     8.7657     3.4659 C.3     
  23 C23            2.9877     8.6039     2.1881 C.3     
  24 C24            4.0013     9.7455     2.0871 C.3     
  25 N25            4.1403    10.1351     0.6695 N.am    
  26 C26            5.3347     9.2854     2.6175 C.2     
  27 N27            5.5564     9.2529     3.9465 N.am    
  28 O28            6.2083     8.9444     1.8485 O.2     
  29 C29            3.3916    11.1928     0.2533 C.2     
  30 O30            2.6614    11.7716     1.0297 O.2     
  31 C31            3.4817    11.6358    -1.1843 C.3     
  32 N32            2.3207    12.5054    -1.4830 N.am    
  33 C33            4.7787    12.4181    -1.4005 C.3     
  34 C34            1.3367    11.9297    -2.2359 C.2     
  35 O35            1.4434    10.7846    -2.6210 O.2     
  36 C36            0.1159    12.7443    -2.5785 C.3     
  37 N37           -1.0181    11.8285    -2.8136 N.am    
  38 C38           -0.2160    13.6836    -1.4173 C.3     
  39 C39           -2.1977    12.1538    -2.2169 C.2     
  40 O40           -2.2848    13.1479    -1.5275 O.2     
  41 C41           -3.3938    11.2612    -2.4256 C.3     
  42 C42            4.9252    12.7535    -2.8624 C.2     
  43 C43            4.3432    13.9059    -3.5546 C.ar    
  44 C44            4.7497    13.7990    -4.8970 C.ar    
  45 N45            5.5203    12.6625    -4.9988 N.pl3   
  46 C46            5.6185    12.0561    -3.7761 C.2     
  47 C47            3.5411    14.9758    -3.1526 C.ar    
  48 C48            3.1547    15.9147    -4.0668 C.ar    
  49 C49            3.5529    15.8135    -5.3930 C.ar    
  50 C50            4.3448    14.7668    -5.8108 C.ar    
  51 N51           -4.1480    11.1733    -1.1543 N.am    
  52 C52           -2.9260     9.8654    -2.8424 C.3     
  53 C53           -4.1251     8.9966    -3.1226 C.ar    
  54 C54           -4.9214     9.2511    -4.2247 C.ar    
  55 C55           -6.0219     8.4526    -4.4817 C.ar    
  56 C56           -6.3249     7.4015    -3.6372 C.ar    
  57 C57           -5.5286     7.1477    -2.5358 C.ar    
  58 C58           -4.4261     7.9417    -2.2815 C.ar    
  59 C59           -4.4189     8.1597     2.5799 C.2     
  60 O60           -5.6201     8.0188     2.4893 O.2     
  61 C61           -0.3764    12.8690    -0.1322 C.3     
  62 C62           -0.6172    13.8159     1.0452 C.3     
  63 N63           -0.7718    13.0357     2.2755 N.pl3   
  64 C64           -0.9987    13.6754     3.4712 C.2     
  65 N65           -1.0804    15.0472     3.5122 N.pl3   
  66 N66           -1.1363    12.9813     4.5658 N.2     
  67 N67           -3.7743     9.0921     1.8261 N.am    
  68 C68           -4.6108     9.8998     0.9160 C.3     
  69 C69           -3.8809    10.0722    -0.3910 C.2     
  70 O70           -3.0711     9.2478    -0.7590 O.2     
  71 O71           -0.5574     7.0521     3.1659 O.2     
  72 Cl72          -4.5404    10.5720    -5.2848 Cl      
  73 C73           -4.8724    11.2712     1.5419 C.3     
  74 O74           -5.7648    12.0130     0.7079 O.3     
  75 C75           -6.5198    13.0069     1.4038 C.3     
  76 C76           -7.3317    13.8042     0.4158 C.ar    
  77 C77           -8.6451    13.4567     0.1605 C.ar    
  78 C78           -6.7648    14.8864    -0.2309 C.ar    
  79 C79           -7.5096    15.6178    -1.1372 C.ar    
  80 C80           -8.8211    15.2666    -1.3971 C.ar    
  81 C81           -9.3898    14.1880    -0.7458 C.ar    
  82 C82           -3.5510    12.0305     1.6772 C.3     
  83 H83           -1.8179     1.1562     5.0427 H       
  84 H84           -3.2186     0.3994     4.2468 H       
  85 H85           -1.6020     0.2724     3.5128 H       
  86 H86           -0.5893     2.7565     3.2560 H       
  87 H87           -0.7887     4.7464     2.0782 H       
  88 H88           -3.2729     3.2992     1.0569 H       
  89 H89           -2.6349     4.8148     0.3755 H       
  90 H90           -0.4820     3.6872    -0.1164 H       
  91 H91           -1.1200     2.1717     0.5649 H       
  92 H92           -2.9203     2.1630    -1.1401 H       
  93 H93           -2.2823     3.6786    -1.8215 H       
  94 H94           -0.1924     1.7797    -1.7632 H       
  95 H95            0.3439     0.6443    -3.7865 H       
  96 H96           -0.7851     0.5615    -5.0279 H       
  97 H97           -2.8569     1.5639    -4.7383 H       
  98 H98           -2.1588     6.8172     2.0655 H       
  99 H99           -4.2946     6.6898     4.1223 H       
 100 H100          -2.2999     8.9739     3.8682 H       
 101 H101          -3.4593     8.6728     5.1846 H       
 102 H102          -1.5208     7.8217     6.1480 H       
 103 H103          -2.1397     6.3567     5.3488 H       
 104 H104           0.7877     7.6792     5.9104 H       
 105 H105           2.7584     7.0689     4.6547 H       
 106 H106           1.6942     6.6692     3.2812 H       
 107 H107           1.2147     9.2496     3.2277 H       
 108 H108           2.7132     9.3776     4.1799 H       
 109 H109           3.5157     7.6507     2.2151 H       
 110 H110           2.3258     8.6281     1.3224 H       
 111 H111           3.6497    10.5985     2.6676 H       
 112 H112           4.7342     9.6617     0.0662 H       
 113 H113           4.8577     9.5256     4.5616 H       
 114 H114           6.4147     8.9567     4.2879 H       
 115 H115           3.4636    10.7638    -1.8379 H       
 116 H116           2.2630    13.4204    -1.1663 H       
 117 H117           4.7492    13.3387    -0.8177 H       
 118 H118           5.6262    11.8122    -1.0801 H       
 119 H119           0.3071    13.3276    -3.4793 H       
 120 H120          -0.9272    11.0354    -3.3647 H       
 121 H121           0.5912    14.4053    -1.2916 H       
 122 H122          -1.1453    14.2116    -1.6312 H       
 123 H123          -4.0331    11.6820    -3.2017 H       
 124 H124           5.9348    12.3415    -5.8149 H       
 125 H125           6.1663    11.1468    -3.5772 H       
 126 H126           3.2269    15.0607    -2.1228 H       
 127 H127           2.5343    16.7421    -3.7555 H       
 128 H128           3.2391    16.5634    -6.1040 H       
 129 H129           4.6496    14.6970    -6.8446 H       
 130 H130          -4.7869    11.8506    -0.8823 H       
 131 H131          -2.3139     9.9406    -3.7411 H       
 132 H132          -2.3376     9.4241    -2.0379 H       
 133 H133          -6.6442     8.6510    -5.3418 H       
 134 H134          -7.1840     6.7785    -3.8374 H       
 135 H135          -5.7660     6.3263    -1.8759 H       
 136 H136          -3.8043     7.7427    -1.4212 H       
 137 H137          -1.2253    12.1929    -0.2342 H       
 138 H138           0.5297    12.2901     0.0465 H       
 139 H139           0.2320    14.4915     1.1477 H       
 140 H140          -1.5229    14.3953     0.8661 H       
 141 H141          -0.7141    12.0679     2.2466 H       
 142 H142          -0.9781    15.5638     2.6976 H       
 143 H143          -1.2405    15.4985     4.3558 H       
 144 H144          -1.2963    13.4327     5.4094 H       
 145 H145          -2.8145     9.2196     1.8840 H       
 146 H146          -5.5579     9.3894     0.7410 H       
 147 H147          -5.3195    11.1415     2.5275 H       
 148 H148          -7.1877    12.5229     2.1164 H       
 149 H149          -5.8405    13.6722     1.9367 H       
 150 H150          -9.0892    12.6136     0.6688 H       
 151 H151          -5.7402    15.1608    -0.0279 H       
 152 H152          -7.0669    16.4637    -1.6419 H       
 153 H153          -9.4031    15.8382    -2.1049 H       
 154 H154         -10.4145    13.9136    -0.9488 H       
 155 H155          -3.7374    13.0076     2.1230 H       
 156 H156          -2.8703    11.4648     2.3133 H       
 157 H157          -3.1040    12.1602     0.6916 H       
@<TRIPOS>BOND
   1    1    2 1
   2    1    3 am
   3    1    4 2
   4    2   83 1
   5    2   84 1
   6    2   85 1
   7    3    5 1
   8    3   86 1
   9    5    6 1
  10    5    7 1
  11    5   87 1
  12    6    8 1
  13    6   88 1
  14    6   89 1
  15    7   14 2
  16    7   15 am
  17    8    9 1
  18    8   90 1
  19    8   91 1
  20    9   10 1
  21    9   92 1
  22    9   93 1
  23   10   11 1
  24   10   94 1
  25   11   12 1
  26   11   13 2
  27   12   95 1
  28   12   96 1
  29   13   97 1
  30   15   16 1
  31   15   98 1
  32   16   17 1
  33   16   59 1
  34   16   99 1
  35   17   18 1
  36   17  100 1
  37   17  101 1
  38   18   19 1
  39   18  102 1
  40   18  103 1
  41   19   20 am
  42   19   71 2
  43   20   21 1
  44   20  104 1
  45   21   22 1
  46   21  105 1
  47   21  106 1
  48   22   23 1
  49   22  107 1
  50   22  108 1
  51   23   24 1
  52   23  109 1
  53   23  110 1
  54   24   25 1
  55   24   26 1
  56   24  111 1
  57   25   29 am
  58   25  112 1
  59   26   27 am
  60   26   28 2
  61   27  113 1
  62   27  114 1
  63   29   30 2
  64   29   31 1
  65   31   32 1
  66   31   33 1
  67   31  115 1
  68   32   34 am
  69   32  116 1
  70   33   42 1
  71   33  117 1
  72   33  118 1
  73   34   35 2
  74   34   36 1
  75   36   37 1
  76   36   38 1
  77   36  119 1
  78   37   39 am
  79   37  120 1
  80   38   61 1
  81   38  121 1
  82   38  122 1
  83   39   40 2
  84   39   41 1
  85   41   51 1
  86   41   52 1
  87   41  123 1
  88   42   43 1
  89   42   46 2
  90   43   44 ar
  91   43   47 ar
  92   44   45 1
  93   44   50 ar
  94   45   46 1
  95   45  124 1
  96   46  125 1
  97   47   48 ar
  98   47  126 1
  99   48   49 ar
 100   48  127 1
 101   49   50 ar
 102   49  128 1
 103   50  129 1
 104   51   69 am
 105   51  130 1
 106   52   53 1
 107   52  131 1
 108   52  132 1
 109   53   54 ar
 110   53   58 ar
 111   54   55 ar
 112   54   72 1
 113   55   56 ar
 114   55  133 1
 115   56   57 ar
 116   56  134 1
 117   57   58 ar
 118   57  135 1
 119   58  136 1
 120   59   60 2
 121   59   67 am
 122   61   62 1
 123   61  137 1
 124   61  138 1
 125   62   63 1
 126   62  139 1
 127   62  140 1
 128   63   64 1
 129   63  141 1
 130   64   65 1
 131   64   66 2
 132   65  142 1
 133   65  143 1
 134   66  144 1
 135   67   68 1
 136   67  145 1
 137   68   69 1
 138   68   73 1
 139   68  146 1
 140   69   70 2
 141   73   74 1
 142   73   82 1
 143   73  147 1
 144   74   75 1
 145   75   76 1
 146   75  148 1
 147   75  149 1
 148   76   77 ar
 149   76   78 ar
 150   77   81 ar
 151   77  150 1
 152   78   79 ar
 153   78  151 1
 154   79   80 ar
 155   79  152 1
 156   80   81 ar
 157   80  153 1
 158   81  154 1
 159   82  155 1
 160   82  156 1
 161   82  157 1

#	End of record

