#	Name: ASD04910067
#	Creating user name:	WinNT
#	Creation time:	15. 06. 2019 20:55

#	Modifying user name:	WinNT
#	Modification time:	15. 06. 2019 20:55

#	Program:	/corina/corina34_cracker 3.40 0067  02.08.2006

@<TRIPOS>MOLECULE
ASD04910067
  21   22    0    0    0
SMALL
NO_CHARGES


@<TRIPOS>ATOM
   1 N1            -0.0169     1.3938     0.0097 N.pl3   
   2 C2             0.0021    -0.0041     0.0020 C.ar    
   3 C3             1.2143    -0.6824    -0.0132 C.ar    
   4 C4             1.2326    -2.0626    -0.0203 C.ar    
   5 C5             0.0396    -2.7729    -0.0122 C.ar    
   6 C6            -1.1722    -2.0953     0.0030 C.ar    
   7 C7            -1.1912    -0.7151     0.0154 C.ar    
   8 N8             0.0587    -4.1758    -0.0199 N.pl3   
   9 N9             1.2016    -4.9857    -0.0351 N.2     
  10 C10            0.8180    -6.2374    -0.0377 C.2     
  11 C11           -0.5814    -6.2701    -0.0243 C.2     
  12 C12           -1.0286    -4.9916    -0.0080 C.2     
  13 F13           -1.3503    -7.3810    -0.0224 F       
  14 H14            0.8165     1.8901     0.0044 H       
  15 H15           -0.8634     1.8673     0.0163 H       
  16 H16            2.1422    -0.1299    -0.0198 H       
  17 H17            2.1750    -2.5900    -0.0325 H       
  18 H18           -2.0999    -2.6482     0.0089 H       
  19 H19           -2.1338    -0.1881     0.0314 H       
  20 H20            1.4701    -7.0983    -0.0487 H       
  21 H21           -2.0618    -4.6774     0.0087 H       
@<TRIPOS>BOND
   1    1    2 1
   2    1   14 1
   3    1   15 1
   4    2    3 ar
   5    2    7 ar
   6    3    4 ar
   7    3   16 1
   8    4    5 ar
   9    4   17 1
  10    5    6 ar
  11    5    8 1
  12    6    7 ar
  13    6   18 1
  14    7   19 1
  15    8    9 1
  16    8   12 1
  17    9   10 2
  18   10   11 1
  19   10   20 1
  20   11   12 2
  21   11   13 1
  22   12   21 1

#	End of record

