#	Name: ASD01882476
#	Creating user name:	WinNT
#	Creation time:	15. 06. 2019 19:44

#	Modifying user name:	WinNT
#	Modification time:	15. 06. 2019 19:44

#	Program:	/corina/corina34_cracker 3.40 0067  02.08.2006

@<TRIPOS>MOLECULE
ASD01882476
  52   57    0    0    0
SMALL
NO_CHARGES


@<TRIPOS>ATOM
   1 C1            -0.7433     2.9230     0.1719 C.3     
   2 C2            -1.2717     1.6095     0.6847 C.2     
   3 C3            -0.5028     0.5226     0.9053 C.2     
   4 C4             0.9873     0.5129     0.6515 C.3     
   5 C5             1.3268     1.7195    -0.2329 C.3     
   6 N6             0.7203     2.9325     0.3349 N.3     
   7 O7            -1.2590    -0.4899     1.3637 O.3     
   8 C8            -2.6254     1.2311     1.0337 C.ar    
   9 C9            -2.5407    -0.1196     1.4574 C.ar    
  10 C10           -3.8430     1.9135     1.0157 C.ar    
  11 C11           -4.9596     1.2084     1.4301 C.ar    
  12 C12           -4.8779    -0.1099     1.8440 C.ar    
  13 C13           -3.6797    -0.8043     1.8682 C.ar    
  14 C14            1.3081     4.1415    -0.2573 C.3     
  15 C15            5.0861     4.1848    -0.2936 C.2     
  16 C16            3.7493     4.0637    -0.7194 C.2     
  17 C17            2.7460     4.2654     0.1766 C.2     
  18 C18            3.0553     4.5904     1.5085 C.2     
  19 C19            4.3412     4.7034     1.9022 C.2     
  20 N20            5.3572     4.5039     1.0144 N.pl3   
  21 N21            7.2035     4.2663    -0.0662 N.2     
  22 N22            6.2517     4.0485    -0.9044 N.2     
  23 C23            6.7135     4.5465     1.1138 C.2     
  24 C24            3.4340     3.7147    -2.1511 C.3     
  25 F25            2.9526     4.8496    -2.8126 F       
  26 F26            4.5947     3.2615    -2.7871 F       
  27 F27            2.4619     2.7091    -2.1828 F       
  28 C28            7.5065     4.8573     2.3570 C.3     
  29 C29            7.7942     3.5603     3.1160 C.3     
  30 C30            8.6923     3.6491     4.3515 C.3     
  31 C31            7.1897     3.4106     4.5135 C.3     
  32 H32           -0.9952     3.0324    -0.8829 H       
  33 H33           -1.1809     3.7419     0.7430 H       
  34 H34            1.5225     0.5879     1.5981 H       
  35 H35            1.2679    -0.4084     0.1411 H       
  36 H36            2.4088     1.8424    -0.2794 H       
  37 H37            0.9371     1.5543    -1.2374 H       
  38 H38           -3.9105     2.9423     0.6942 H       
  39 H39           -5.9210     1.7004     1.4309 H       
  40 H40           -5.7795    -0.6148     2.1580 H       
  41 H41           -3.6316    -1.8331     2.1931 H       
  42 H42            1.2612     4.0734    -1.3442 H       
  43 H43            0.7512     5.0171     0.0762 H       
  44 H44            2.2596     4.7508     2.2209 H       
  45 H45            4.5675     4.9539     2.9281 H       
  46 H46            8.4475     5.3317     2.0786 H       
  47 H47            6.9341     5.5316     2.9940 H       
  48 H48            7.8706     2.6632     2.5016 H       
  49 H49            9.3593     2.8102     4.5501 H       
  50 H50            9.0782     4.6315     4.6236 H       
  51 H51            6.5871     4.2361     4.8922 H       
  52 H52            6.8682     2.4149     4.8188 H       
@<TRIPOS>BOND
   1    1    2 1
   2    1    6 1
   3    1   32 1
   4    1   33 1
   5    2    3 2
   6    2    8 1
   7    3    4 1
   8    3    7 1
   9    4    5 1
  10    4   34 1
  11    4   35 1
  12    5    6 1
  13    5   36 1
  14    5   37 1
  15    6   14 1
  16    7    9 1
  17    8    9 ar
  18    8   10 ar
  19    9   13 ar
  20   10   11 ar
  21   10   38 1
  22   11   12 ar
  23   11   39 1
  24   12   13 ar
  25   12   40 1
  26   13   41 1
  27   14   17 1
  28   14   42 1
  29   14   43 1
  30   15   16 1
  31   15   20 1
  32   15   22 2
  33   16   17 2
  34   16   24 1
  35   17   18 1
  36   18   19 2
  37   18   44 1
  38   19   20 1
  39   19   45 1
  40   20   23 1
  41   21   22 1
  42   21   23 2
  43   23   28 1
  44   24   25 1
  45   24   26 1
  46   24   27 1
  47   28   29 1
  48   28   46 1
  49   28   47 1
  50   29   30 1
  51   29   31 1
  52   29   48 1
  53   30   31 1
  54   30   49 1
  55   30   50 1
  56   31   51 1
  57   31   52 1

#	End of record

