#	Name: ASD03330458
#	Creating user name:	WinNT
#	Creation time:	15. 06. 2019 20:37

#	Modifying user name:	WinNT
#	Modification time:	15. 06. 2019 20:37

#	Program:	/corina/corina34_cracker 3.40 0067  02.08.2006

@<TRIPOS>MOLECULE
ASD03330458
  57   59    0    0    0
SMALL
NO_CHARGES


@<TRIPOS>ATOM
   1 C1            -1.2765     2.0351    -2.1575 C.3     
   2 N2            -1.1071     0.6507    -1.6944 N.3     
   3 C3            -0.3049    -0.1362    -2.6485 C.3     
   4 C4             0.9440     0.6464    -2.9623 C.2     
   5 N5             1.0955     1.9729    -2.6810 N.pl3   
   6 C6             0.0557     2.7877    -2.0463 C.3     
   7 C7             2.0937     0.2271    -3.5465 C.2     
   8 N8             2.9308     1.2876    -3.6141 N.2     
   9 C9             2.3368     2.3388    -3.0948 C.2     
  10 C10            2.9213     3.6929    -2.9806 C.ar    
  11 C11            2.3798    -1.1382    -4.0216 C.2     
  12 O12            1.5414    -2.0113    -3.9038 O.2     
  13 C13            3.8552    -2.7766    -5.0588 C.3     
  14 N14            3.5707    -1.4193    -4.5865 N.am    
  15 C15           -2.4084     0.0143    -1.4502 C.3     
  16 C16            2.8224     4.3994    -1.7822 C.ar    
  17 C17            4.3729    -3.6237    -3.8947 C.3     
  18 C18            3.2788    -3.7548    -2.8333 C.3     
  19 C19            4.7563    -5.0137    -4.4063 C.3     
  20 C20            5.6013    -2.9497    -3.2802 C.3     
  21 C21            4.8996    -2.7223    -6.1439 C.2     
  22 O22            5.5584    -1.7164    -6.3017 O.2     
  23 N23            5.1014    -3.7917    -6.9391 N.am    
  24 C24            6.1676    -3.7668    -7.9435 C.3     
  25 C25            3.3711     5.6639    -1.6819 C.ar    
  26 C26            4.0180     6.2292    -2.7689 C.ar    
  27 C27            4.1189     5.5329    -3.9596 C.ar    
  28 C28            3.5793     4.2666    -4.0705 C.ar    
  29 F29            3.2760     6.3502    -0.5221 F       
  30 Cl30           3.7073     3.3948    -5.5662 Cl      
  31 H31           -1.6050     2.0317    -3.1969 H       
  32 H32           -2.0265     2.5334    -1.5433 H       
  33 H33           -0.0372    -1.0942    -2.2026 H       
  34 H34           -0.8760    -0.3010    -3.5621 H       
  35 H35           -0.0208     3.7483    -2.5557 H       
  36 H36            0.3022     2.9461    -0.9964 H       
  37 H37            2.9427    -3.2223    -5.4548 H       
  38 H38            4.2394    -0.7230    -4.6804 H       
  39 H39           -3.0146     0.0682    -2.3545 H       
  40 H40           -2.2565    -1.0297    -1.1762 H       
  41 H41           -2.9196     0.5323    -0.6387 H       
  42 H42            2.3180     3.9595    -0.9346 H       
  43 H43            2.4036    -4.2350    -3.2710 H       
  44 H44            3.6476    -4.3583    -2.0039 H       
  45 H45            3.0056    -2.7646    -2.4688 H       
  46 H46            5.4364    -4.9146    -5.2524 H       
  47 H47            5.2473    -5.5717    -3.6090 H       
  48 H48            3.8585    -5.5451    -4.7220 H       
  49 H49            5.3282    -1.9594    -2.9157 H       
  50 H50            5.9702    -3.5531    -2.4508 H       
  51 H51            6.3808    -2.8562    -4.0364 H       
  52 H52            4.5407    -4.5778    -6.8463 H       
  53 H53            6.1779    -4.7122    -8.4859 H       
  54 H54            5.9897    -2.9491    -8.6420 H       
  55 H55            7.1284    -3.6205    -7.4500 H       
  56 H56            4.4450     7.2178    -2.6861 H       
  57 H57            4.6244     5.9790    -4.8034 H       
@<TRIPOS>BOND
   1    1    2 1
   2    1    6 1
   3    1   31 1
   4    1   32 1
   5    2    3 1
   6    2   15 1
   7    3    4 1
   8    3   33 1
   9    3   34 1
  10    4    5 1
  11    4    7 2
  12    5    6 1
  13    5    9 1
  14    6   35 1
  15    6   36 1
  16    7    8 1
  17    7   11 1
  18    8    9 2
  19    9   10 1
  20   10   16 ar
  21   10   28 ar
  22   11   12 2
  23   11   14 am
  24   13   14 1
  25   13   17 1
  26   13   21 1
  27   13   37 1
  28   14   38 1
  29   15   39 1
  30   15   40 1
  31   15   41 1
  32   16   25 ar
  33   16   42 1
  34   17   18 1
  35   17   19 1
  36   17   20 1
  37   18   43 1
  38   18   44 1
  39   18   45 1
  40   19   46 1
  41   19   47 1
  42   19   48 1
  43   20   49 1
  44   20   50 1
  45   20   51 1
  46   21   22 2
  47   21   23 am
  48   23   24 1
  49   23   52 1
  50   24   53 1
  51   24   54 1
  52   24   55 1
  53   25   26 ar
  54   25   29 1
  55   26   27 ar
  56   26   56 1
  57   27   28 ar
  58   27   57 1
  59   28   30 1

#	End of record

