#	Name: ASD01708024
#	Creating user name:	WinNT
#	Creation time:	15. 06. 2019 19:22

#	Modifying user name:	WinNT
#	Modification time:	15. 06. 2019 19:22

#	Program:	/corina/corina34_cracker 3.40 0067  02.08.2006

@<TRIPOS>MOLECULE
ASD01708024
  73   77    0    0    0
SMALL
NO_CHARGES


@<TRIPOS>ATOM
   1 C1             0.4146     1.5163     1.9085 C.ar    
   2 C2             0.4106     0.1512     1.8759 C.ar    
   3 C3             1.6016     2.2214     1.7599 C.ar    
   4 C4             2.7956     1.5580     1.5771 C.ar    
   5 C5             2.8168     0.1688     1.5403 C.ar    
   6 C6             1.6118    -0.5428     1.6913 C.ar    
   7 O7             3.8048    -0.7343     1.3804 O.3     
   8 C8             3.2941    -1.9849     1.4213 C.2     
   9 C9             1.9474    -1.9177     1.6110 C.2     
  10 C10            4.0437    -3.1805     1.2869 C.2     
  11 C11            5.5350    -3.1157     1.0799 C.3     
  12 O12            3.4843    -4.2566     1.3384 O.2     
  13 C13            6.1819    -4.4152     1.5735 C.3     
  14 C14            5.8416    -2.9605    -0.4081 C.3     
  15 C15            7.3186    -3.1152    -0.6640 C.ar    
  16 C16            8.1702    -3.7018     0.2468 C.ar    
  17 C17            7.6975    -4.2271     1.5775 C.3     
  18 C18            7.8155    -2.6401    -1.8727 C.ar    
  19 C19            9.1544    -2.7510    -2.1772 C.ar    
  20 C20           10.0235    -3.3488    -1.2602 C.ar    
  21 C21            9.5210    -3.8222    -0.0488 C.ar    
  22 Cl22          10.5917    -4.5662     1.0973 Cl      
  23 Cl23           9.7584    -2.1525    -3.6907 Cl      
  24 C24           11.4614    -3.4784    -1.5718 C.2     
  25 N25           11.9176    -4.5782    -2.2032 N.am    
  26 O26           12.2333    -2.5929    -1.2588 O.2     
  27 C27           13.3439    -4.7068    -2.5123 C.3     
  28 C28           13.6399    -4.0118    -3.8163 C.2     
  29 O29           14.8913    -4.0000    -4.3015 O.3     
  30 O30           12.7507    -3.4652    -4.4250 O.2     
  31 C31           13.7089    -6.1879    -2.6294 C.3     
  32 N32           13.3112    -6.8872    -1.4050 N.pl3   
  33 C33           13.5387    -8.2284    -1.2798 C.2     
  34 N34           13.1061    -8.8936    -0.1680 N.pl3   
  35 N35           14.1773    -8.8822    -2.2343 N.2     
  36 C36           14.4858    -8.2553    -3.3953 C.1     
  37 N37           14.7445    -7.7297    -4.3687 N.1     
  38 C38           13.2352   -10.3540    -0.0719 C.3     
  39 C39           12.5083    -8.1617     0.9571 C.3     
  40 C40           13.2549    -8.5363     2.2413 C.3     
  41 C41           13.2468   -10.0578     2.4060 C.3     
  42 C42           13.9721   -10.6995     1.2260 C.3     
  43 O43           13.9925   -12.1186     1.3932 O.3     
  44 O44           12.6077    -7.9317     3.3628 O.3     
  45 H45           -0.5131     2.0517     2.0465 H       
  46 H46           -0.5161    -0.3909     1.9925 H       
  47 H47            1.5889     3.3010     1.7876 H       
  48 H48            3.7129     2.1164     1.4622 H       
  49 H49            1.2658    -2.7519     1.6865 H       
  50 H50            5.9455    -2.2691     1.6302 H       
  51 H51            5.8368    -4.6367     2.5834 H       
  52 H52            5.9154    -5.2347     0.9059 H       
  53 H53            5.2982    -3.7214    -0.9683 H       
  54 H54            5.5208    -1.9731    -0.7401 H       
  55 H55            7.9698    -3.5194     2.3605 H       
  56 H56            8.1778    -5.1850     1.7769 H       
  57 H57            7.1436    -2.1789    -2.5815 H       
  58 H58           11.3017    -5.2847    -2.4529 H       
  59 H59           13.9309    -4.2498    -1.7156 H       
  60 H60           15.0322    -3.5417    -5.1413 H       
  61 H61           13.1886    -6.6240    -3.4822 H       
  62 H62           14.7851    -6.2868    -2.7711 H       
  63 H63           12.8864    -6.3979    -0.6832 H       
  64 H64           12.2446   -10.8086    -0.0617 H       
  65 H65           13.8022   -10.7276    -0.9245 H       
  66 H66           12.5959    -7.0893     0.7831 H       
  67 H67           11.4572    -8.4339     1.0528 H       
  68 H68           14.2840    -8.1824     2.1802 H       
  69 H69           13.7560   -10.3256     3.3317 H       
  70 H70           12.2171   -10.4137     2.4421 H       
  71 H71           14.9941   -10.3235     1.1791 H       
  72 H72           14.4389   -12.5925     0.6783 H       
  73 H73           12.5740    -6.9661     3.3239 H       
@<TRIPOS>BOND
   1    1    2 ar
   2    1    3 ar
   3    1   45 1
   4    2    6 ar
   5    2   46 1
   6    3    4 ar
   7    3   47 1
   8    4    5 ar
   9    4   48 1
  10    5    6 ar
  11    5    7 1
  12    6    9 1
  13    7    8 1
  14    8    9 2
  15    8   10 1
  16    9   49 1
  17   10   11 1
  18   10   12 2
  19   11   13 1
  20   11   14 1
  21   11   50 1
  22   13   17 1
  23   13   51 1
  24   13   52 1
  25   14   15 1
  26   14   53 1
  27   14   54 1
  28   15   16 ar
  29   15   18 ar
  30   16   17 1
  31   16   21 ar
  32   17   55 1
  33   17   56 1
  34   18   19 ar
  35   18   57 1
  36   19   20 ar
  37   19   23 1
  38   20   21 ar
  39   20   24 1
  40   21   22 1
  41   24   25 am
  42   24   26 2
  43   25   27 1
  44   25   58 1
  45   27   28 1
  46   27   31 1
  47   27   59 1
  48   28   29 1
  49   28   30 2
  50   29   60 1
  51   31   32 1
  52   31   61 1
  53   31   62 1
  54   32   33 1
  55   32   63 1
  56   33   34 1
  57   33   35 2
  58   34   38 1
  59   34   39 1
  60   35   36 1
  61   36   37 3
  62   38   42 1
  63   38   64 1
  64   38   65 1
  65   39   40 1
  66   39   66 1
  67   39   67 1
  68   40   41 1
  69   40   44 1
  70   40   68 1
  71   41   42 1
  72   41   69 1
  73   41   70 1
  74   42   43 1
  75   42   71 1
  76   43   72 1
  77   44   73 1

#	End of record

