#	Name: ASD06020133
#	Creating user name:	WinNT
#	Creation time:	15. 06. 2019 21:04

#	Modifying user name:	WinNT
#	Modification time:	15. 06. 2019 21:04

#	Program:	/corina/corina34_cracker 3.40 0067  02.08.2006

@<TRIPOS>MOLECULE
ASD06020133
  39   42    0    0    0
SMALL
NO_CHARGES


@<TRIPOS>ATOM
   1 C1             0.0027    -0.0072     0.0093 C.1     
   2 C2            -0.0172     1.4245     0.0313 C.ar    
   3 C3             1.1900     2.1503     0.0275 C.ar    
   4 C4             1.1544     3.5442     0.0491 C.ar    
   5 C5            -0.0601     4.2036     0.0740 C.ar    
   6 C6            -1.2459     3.4894     0.0778 C.ar    
   7 C7            -1.2317     2.1092     0.0508 C.ar    
   8 N8             0.0185    -1.1430    -0.0081 N.1     
   9 Cl9            2.6348     4.4509     0.0452 Cl      
  10 C10            6.1987     0.2750    -0.0611 C.ar    
  11 C11            4.8501     0.6478    -0.0392 C.ar    
  12 C12            3.8601    -0.3418    -0.0419 C.ar    
  13 C13            4.2976    -1.6923    -0.0673 C.ar    
  14 C14            5.6305    -1.9648    -0.0875 C.ar    
  15 N15            6.5390    -1.0011    -0.0842 N.ar    
  16 S16            4.0609     2.2207    -0.0063 S.3     
  17 C17            2.4846     1.4400     0.0012 C.2     
  18 N18            2.6229     0.1543    -0.0196 N.2     
  19 F19            3.3970    -2.6993    -0.0709 F       
  20 N20            7.1883     1.2558    -0.0643 N.pl3   
  21 C21           10.1414    -0.7245     0.3076 C.ar    
  22 N22            8.8665    -0.3756     0.2214 N.ar    
  23 C23            8.5238     0.8936     0.0259 C.ar    
  24 C24            9.5286     1.8570    -0.0876 C.ar    
  25 C25           10.8450     1.4505     0.0082 C.ar    
  26 N26           11.1148     0.1680     0.2035 N.ar    
  27 C27           11.9626     2.4547    -0.1088 C.3     
  28 N28           10.4644    -2.0539     0.5172 N.pl3   
  29 H29           -0.0840     5.2832     0.0911 H       
  30 H30           -2.1888     4.0156     0.0974 H       
  31 H31           -2.1614     1.5596     0.0493 H       
  32 H32            5.9563    -2.9943    -0.1064 H       
  33 H33            6.9431     2.1920    -0.1298 H       
  34 H34            9.2817     2.8963    -0.2471 H       
  35 H35           12.2042     2.8461     0.8794 H       
  36 H36           12.8425     1.9712    -0.5332 H       
  37 H37           11.6494     3.2730    -0.7571 H       
  38 H38            9.7610    -2.7168     0.5991 H       
  39 H39           11.3941    -2.3226     0.5822 H       
@<TRIPOS>BOND
   1    1    2 1
   2    1    8 3
   3    2    3 ar
   4    2    7 ar
   5    3    4 ar
   6    3   17 1
   7    4    5 ar
   8    4    9 1
   9    5    6 ar
  10    5   29 1
  11    6    7 ar
  12    6   30 1
  13    7   31 1
  14   10   11 ar
  15   10   15 ar
  16   10   20 1
  17   11   12 ar
  18   11   16 1
  19   12   13 ar
  20   12   18 1
  21   13   14 ar
  22   13   19 1
  23   14   15 ar
  24   14   32 1
  25   16   17 1
  26   17   18 2
  27   20   23 1
  28   20   33 1
  29   21   22 ar
  30   21   26 ar
  31   21   28 1
  32   22   23 ar
  33   23   24 ar
  34   24   25 ar
  35   24   34 1
  36   25   26 ar
  37   25   27 1
  38   27   35 1
  39   27   36 1
  40   27   37 1
  41   28   38 1
  42   28   39 1

#	End of record

