#	Name: ASD01720123
#	Creating user name:	WinNT
#	Creation time:	15. 06. 2019 19:23

#	Modifying user name:	WinNT
#	Modification time:	15. 06. 2019 19:23

#	Program:	/corina/corina34_cracker 3.40 0067  02.08.2006

@<TRIPOS>MOLECULE
ASD01720123
  67   71    0    0    0
SMALL
NO_CHARGES


@<TRIPOS>ATOM
   1 C1            -0.0159     1.3651     0.0079 C.ar    
   2 C2             0.0024    -0.0038    -0.0023 C.ar    
   3 C3             1.2237    -0.6744    -0.0104 C.ar    
   4 N4             2.3694    -0.0077    -0.0083 N.ar    
   5 C5             2.4011     1.3136     0.0015 C.ar    
   6 C6             1.2070     2.0518     0.0100 C.ar    
   7 O7             3.5917     1.9588     0.0033 O.3     
   8 C8             4.7687     1.1485    -0.0057 C.3     
   9 C9             6.0068     2.0473    -0.0021 C.3     
  10 C10            7.2670     1.1797    -0.0118 C.3     
  11 C11            8.5017     2.0750    -0.1340 C.3     
  12 C12            7.3446     0.3786     1.2894 C.3     
  13 C13            1.2380     3.5238     0.0204 C.2     
  14 O14            2.3039     4.1097     0.0221 O.2     
  15 N15            0.0852     4.2221     0.0281 N.am    
  16 C16            0.1160     5.6867     0.0385 C.3     
  17 C17           -1.1817     6.2284    -0.5642 C.3     
  18 C18           -1.1496     7.7580    -0.5534 C.3     
  19 C19            0.2558     6.1837     1.4788 C.3     
  20 C20            0.2880     7.7133     1.4897 C.3     
  21 C21           -1.0098     8.2550     0.8869 C.3     
  22 C22           -0.9344     5.6927     2.3055 C.3     
  23 C23           -2.3719     5.7375     0.2625 C.3     
  24 C24           -2.1999     7.7640     1.7136 C.3     
  25 C25           -2.2321     6.2344     1.7027 C.3     
  26 O26           -0.9797     9.6836     0.8971 O.3     
  27 N27            1.2409    -2.0611    -0.0204 N.pl3   
  28 C28            2.4394    -2.7356    -0.1397 C.2     
  29 S29            2.6159    -4.4328    -0.0405 S.3     
  30 C30            4.3524    -4.2801    -0.2965 C.2     
  31 C31            4.6386    -2.9490    -0.4342 C.2     
  32 N32            3.5927    -2.1682    -0.3490 N.2     
  33 C33            5.2863    -5.3457    -0.3499 C.2     
  34 O34            4.8664    -6.6191    -0.1977 O.3     
  35 O35            6.4663    -5.1119    -0.5330 O.2     
  36 H36           -0.9516     1.9045     0.0099 H       
  37 H37           -0.9233    -0.5600    -0.0038 H       
  38 H38            4.7788     0.5126     0.8795 H       
  39 H39            4.7743     0.5259    -0.9004 H       
  40 H40            5.9967     2.6832    -0.8874 H       
  41 H41            6.0012     2.6699     0.8925 H       
  42 H42            7.2299     0.4945    -0.8587 H       
  43 H43            8.5388     2.7603     0.7129 H       
  44 H44            9.3994     1.4569    -0.1409 H       
  45 H45            8.4464     2.6457    -1.0610 H       
  46 H46            8.2424    -0.2395     1.2825 H       
  47 H47            7.3818     1.0639     2.1362 H       
  48 H48            6.4650    -0.2592     1.3764 H       
  49 H49           -0.7648     3.7548     0.0268 H       
  50 H50            0.9639     6.0365    -0.5504 H       
  51 H51           -1.2813     5.8744    -1.5903 H       
  52 H52           -0.3017     8.1078    -1.1423 H       
  53 H53           -2.0741     8.1440    -0.9828 H       
  54 H54            1.1803     5.7978     1.9082 H       
  55 H55            0.3875     8.0673     2.5157 H       
  56 H56            1.1358     8.0631     0.9007 H       
  57 H57           -0.9573     4.6030     2.2977 H       
  58 H58           -0.8348     6.0468     3.3316 H       
  59 H59           -3.2964     6.1234    -0.1669 H       
  60 H60           -2.3948     4.6477     0.2547 H       
  61 H61           -2.1004     8.1181     2.7397 H       
  62 H62           -3.1245     8.1500     1.2842 H       
  63 H63           -3.0800     5.8846     2.2917 H       
  64 H64           -1.7728    10.0964     0.5285 H       
  65 H65            0.4108    -2.5570     0.0564 H       
  66 H66            5.6384    -2.5767    -0.6024 H       
  67 H67            5.5746    -7.2756    -0.2493 H       
@<TRIPOS>BOND
   1    1    2 ar
   2    1    6 ar
   3    1   36 1
   4    2    3 ar
   5    2   37 1
   6    3    4 ar
   7    3   27 1
   8    4    5 ar
   9    5    6 ar
  10    5    7 1
  11    6   13 1
  12    7    8 1
  13    8    9 1
  14    8   38 1
  15    8   39 1
  16    9   10 1
  17    9   40 1
  18    9   41 1
  19   10   11 1
  20   10   12 1
  21   10   42 1
  22   11   43 1
  23   11   44 1
  24   11   45 1
  25   12   46 1
  26   12   47 1
  27   12   48 1
  28   13   14 2
  29   13   15 am
  30   15   16 1
  31   15   49 1
  32   16   17 1
  33   16   19 1
  34   16   50 1
  35   17   18 1
  36   17   23 1
  37   17   51 1
  38   18   21 1
  39   18   52 1
  40   18   53 1
  41   19   20 1
  42   19   22 1
  43   19   54 1
  44   20   21 1
  45   20   55 1
  46   20   56 1
  47   21   24 1
  48   21   26 1
  49   22   25 1
  50   22   57 1
  51   22   58 1
  52   23   25 1
  53   23   59 1
  54   23   60 1
  55   24   25 1
  56   24   61 1
  57   24   62 1
  58   25   63 1
  59   26   64 1
  60   27   28 1
  61   27   65 1
  62   28   29 1
  63   28   32 2
  64   29   30 1
  65   30   31 2
  66   30   33 1
  67   31   32 1
  68   31   66 1
  69   33   34 1
  70   33   35 2
  71   34   67 1

#	End of record

