#	Name: ASD01880876
#	Creating user name:	WinNT
#	Creation time:	15. 06. 2019 19:41

#	Modifying user name:	WinNT
#	Modification time:	15. 06. 2019 19:41

#	Program:	/corina/corina34_cracker 3.40 0067  02.08.2006

@<TRIPOS>MOLECULE
ASD01880876
  44   46    0    0    0
SMALL
NO_CHARGES


@<TRIPOS>ATOM
   1 N1            -0.0159     1.3184     0.0093 N.ar    
   2 C2             0.0021    -0.0041     0.0020 C.ar    
   3 N3             1.1373    -0.6838    -0.0120 N.ar    
   4 C4             2.3057    -0.0588    -0.0198 C.ar    
   5 C5             2.3330     1.3221    -0.0131 C.ar    
   6 C6             1.1188     2.0113     0.0022 C.ar    
   7 C7             3.6427     2.0675    -0.0211 C.3     
   8 O8             4.7230     1.1322    -0.0355 O.3     
   9 C9             5.9802     1.6431    -0.0442 C.ar    
  10 C10            7.0779     0.7880    -0.0584 C.ar    
  11 C11            8.3491     1.3062    -0.0677 C.ar    
  12 C12            8.5493     2.6906    -0.0630 C.ar    
  13 C13            7.4433     3.5449    -0.0491 C.ar    
  14 C14            6.1701     3.0198    -0.0448 C.ar    
  15 C15            9.7204     0.6779    -0.0833 C.3     
  16 N16           10.6797     1.7882    -0.0869 N.am    
  17 C17            9.9998     2.9475    -0.0751 C.2     
  18 O18           10.5095     4.0513    -0.0750 O.2     
  19 C19            7.6435     5.0386    -0.0433 C.3     
  20 N20            1.0967     3.3965     0.0089 N.pl3   
  21 O21           -1.1717    -0.6800     0.0096 O.3     
  22 C22           -1.0986    -2.1071     0.0012 C.3     
  23 C23           12.6336     1.6151    -1.5477 C.3     
  24 C24           12.1386     1.6549    -0.1005 C.3     
  25 H25            3.2266    -0.6230    -0.0309 H       
  26 H26            3.6964     2.6982    -0.9085 H       
  27 H27            3.7124     2.6893     0.8714 H       
  28 H28            6.9300    -0.2818    -0.0618 H       
  29 H29            5.3159     3.6806    -0.0345 H       
  30 H30            9.8613     0.0638     0.8062 H       
  31 H31            9.8449     0.0722    -0.9810 H       
  32 H32            7.6830     5.4039    -1.0696 H       
  33 H33            6.8142     5.5143     0.4801 H       
  34 H34            8.5783     5.2779     0.4637 H       
  35 H35            1.9289     3.8948     0.0030 H       
  36 H36            0.2491     3.8680     0.0196 H       
  37 H37           -0.5754    -2.4389    -0.8956 H       
  38 H38           -0.5584    -2.4484     0.8843 H       
  39 H39           -2.1063    -2.5226     0.0086 H       
  40 H40           12.3481     2.5367    -2.0548 H       
  41 H41           13.7190     1.5159    -1.5578 H       
  42 H42           12.1862     0.7641    -2.0614 H       
  43 H43           12.5860     2.5059     0.4132 H       
  44 H44           12.4241     0.7333     0.4067 H       
@<TRIPOS>BOND
   1    1    2 ar
   2    1    6 ar
   3    2    3 ar
   4    2   21 1
   5    3    4 ar
   6    4    5 ar
   7    4   25 1
   8    5    6 ar
   9    5    7 1
  10    6   20 1
  11    7    8 1
  12    7   26 1
  13    7   27 1
  14    8    9 1
  15    9   10 ar
  16    9   14 ar
  17   10   11 ar
  18   10   28 1
  19   11   12 ar
  20   11   15 1
  21   12   13 ar
  22   12   17 1
  23   13   14 ar
  24   13   19 1
  25   14   29 1
  26   15   16 1
  27   15   30 1
  28   15   31 1
  29   16   17 am
  30   16   24 1
  31   17   18 2
  32   19   32 1
  33   19   33 1
  34   19   34 1
  35   20   35 1
  36   20   36 1
  37   21   22 1
  38   22   37 1
  39   22   38 1
  40   22   39 1
  41   23   24 1
  42   23   40 1
  43   23   41 1
  44   23   42 1
  45   24   43 1
  46   24   44 1

#	End of record

