#	Name: ASD04910071
#	Creating user name:	WinNT
#	Creation time:	15. 06. 2019 20:55

#	Modifying user name:	WinNT
#	Modification time:	15. 06. 2019 20:55

#	Program:	/corina/corina34_cracker 3.40 0067  02.08.2006

@<TRIPOS>MOLECULE
ASD04910071
  59   61    0    0    0
SMALL
NO_CHARGES


@<TRIPOS>ATOM
   1 C1            -0.0184     1.5028     0.0103 C.2     
   2 C2             0.0021    -0.0041     0.0020 C.3     
   3 C3             1.4513    -0.4944    -0.0145 C.3     
   4 O4             1.0197     2.1211     0.0037 O.2     
   5 O5            -1.1898     2.1580     0.0194 O.3     
   6 C6             2.6473    -2.6171    -0.0373 C.2     
   7 C7             2.6674    -4.0954    -0.0454 C.ar    
   8 C8             3.8837    -4.7799    -0.0607 C.ar    
   9 C9             3.8954    -6.1594    -0.0677 C.ar    
  10 C10            2.7049    -6.8644    -0.0601 C.ar    
  11 C11            1.4958    -6.1920    -0.0450 C.ar    
  12 C12            1.4701    -4.8127    -0.0320 C.ar    
  13 O13            3.6916    -1.9951    -0.0439 O.2     
  14 N14            1.4712    -1.9592    -0.0225 N.am    
  15 C15            2.7254    -8.3712    -0.0689 C.3     
  16 C16            2.4957    -8.8926     1.3511 C.3     
  17 C17            2.6401   -10.4157     1.3646 C.3     
  18 C18            2.4104   -10.9372     2.7846 C.3     
  19 N19            1.6654    -8.8688    -0.9493 N.pl3   
  20 C20            1.7812   -10.1316    -1.5382 C.ar    
  21 C21            0.7763   -10.6037    -2.3729 C.ar    
  22 C22            0.8912   -11.8504    -2.9545 C.ar    
  23 C23            2.0107   -12.6325    -2.7048 C.ar    
  24 C24            3.0150   -12.1613    -1.8703 C.ar    
  25 C25            2.9038   -10.9122    -1.2932 C.ar    
  26 C26            1.2294   -14.4881    -4.1287 C.2     
  27 N27            1.6863   -15.6622    -4.4706 N.2     
  28 C28            2.8729   -15.8663    -3.8799 C.2     
  29 C29            3.1675   -14.7790    -3.1417 C.2     
  30 N30            2.1269   -13.9004    -3.2961 N.pl3   
  31 C31            3.7283   -17.0993    -4.0178 C.3     
  32 F32            3.1512   -17.9651    -4.9530 F       
  33 F33            5.0080   -16.7332    -4.4487 F       
  34 F34            3.8199   -17.7442    -2.7797 F       
  35 H35           -0.4983    -0.3791     0.8948 H       
  36 H36           -0.5153    -0.3696    -0.8850 H       
  37 H37            1.9516    -0.1193    -0.9073 H       
  38 H38            1.9686    -0.1289     0.8726 H       
  39 H39           -1.1523     3.1243     0.0245 H       
  40 H40            4.8137    -4.2307    -0.0674 H       
  41 H41            4.8359    -6.6902    -0.0796 H       
  42 H42            0.5700    -6.7482    -0.0391 H       
  43 H43            0.5257    -4.2891    -0.0157 H       
  44 H44            0.6378    -2.4556    -0.0172 H       
  45 H45            3.6924    -8.7193    -0.4318 H       
  46 H46            3.2317    -8.4519     2.0234 H       
  47 H47            1.4932    -8.6197     1.6806 H       
  48 H48            1.9040   -10.8565     0.6922 H       
  49 H49            3.6426   -10.6886     1.0351 H       
  50 H50            1.4079   -10.6643     3.1141 H       
  51 H51            2.5132   -12.0223     2.7942 H       
  52 H52            3.1464   -10.4964     3.4570 H       
  53 H53            0.8833    -8.3222    -1.1236 H       
  54 H54           -0.0950    -9.9956    -2.5667 H       
  55 H55            0.1100   -12.2175    -3.6036 H       
  56 H56            3.8854   -12.7704    -1.6758 H       
  57 H57            3.6874   -10.5437    -0.6477 H       
  58 H58            0.2961   -14.0548    -4.4567 H       
  59 H59            4.0534   -14.6286    -2.5426 H       
@<TRIPOS>BOND
   1    1    2 1
   2    1    4 2
   3    1    5 1
   4    2    3 1
   5    2   35 1
   6    2   36 1
   7    3   14 1
   8    3   37 1
   9    3   38 1
  10    5   39 1
  11    6    7 1
  12    6   13 2
  13    6   14 am
  14    7    8 ar
  15    7   12 ar
  16    8    9 ar
  17    8   40 1
  18    9   10 ar
  19    9   41 1
  20   10   11 ar
  21   10   15 1
  22   11   12 ar
  23   11   42 1
  24   12   43 1
  25   14   44 1
  26   15   16 1
  27   15   19 1
  28   15   45 1
  29   16   17 1
  30   16   46 1
  31   16   47 1
  32   17   18 1
  33   17   48 1
  34   17   49 1
  35   18   50 1
  36   18   51 1
  37   18   52 1
  38   19   20 1
  39   19   53 1
  40   20   21 ar
  41   20   25 ar
  42   21   22 ar
  43   21   54 1
  44   22   23 ar
  45   22   55 1
  46   23   24 ar
  47   23   30 1
  48   24   25 ar
  49   24   56 1
  50   25   57 1
  51   26   27 2
  52   26   30 1
  53   26   58 1
  54   27   28 1
  55   28   29 2
  56   28   31 1
  57   29   30 1
  58   29   59 1
  59   31   32 1
  60   31   33 1
  61   31   34 1

#	End of record

