#	Name: ASD01917742
#	Creating user name:	WinNT
#	Creation time:	15. 06. 2019 20:09

#	Modifying user name:	WinNT
#	Modification time:	15. 06. 2019 20:09

#	Program:	/corina/corina34_cracker 3.40 0067  02.08.2006

@<TRIPOS>MOLECULE
ASD01917742
  52   55    0    0    0
SMALL
NO_CHARGES


@<TRIPOS>ATOM
   1 C1            -0.7254     0.3886     0.9941 C.ar    
   2 C2            -0.8251    -0.9919     0.9256 C.ar    
   3 C3            -2.0598    -1.5956     0.7651 C.ar    
   4 C4            -3.2008    -0.8267     0.6721 C.ar    
   5 C5            -3.1094     0.5663     0.7403 C.ar    
   6 C6            -1.8611     1.1707     0.9076 C.ar    
   7 C7            -4.2905     1.3702     0.6438 C.1     
   8 C8            -5.2589     2.0292     0.5647 C.1     
   9 C9            -6.4401     2.8331     0.4683 C.ar    
  10 C10           -6.3664     4.2309     0.5346 C.ar    
  11 N11           -7.4794     4.9354     0.4411 N.ar    
  12 C12           -8.6520     4.3385     0.2867 C.ar    
  13 N13           -8.7647     3.0202     0.2194 N.ar    
  14 C14           -7.6999     2.2432     0.2991 C.ar    
  15 N15           -9.7970     5.1177     0.1932 N.am    
  16 C16           -9.8301     6.4553     0.2453 C.2     
  17 N17          -11.0597     6.9733     0.1316 N.am    
  18 C18          -12.0338     5.8832    -0.0210 C.3     
  19 C19          -11.1627     4.6044     0.0152 C.3     
  20 C20          -12.6492     5.9448    -1.4333 C.3     
  21 C21          -11.6827     5.1097    -2.3086 C.3     
  22 C22          -11.2921     3.9495    -1.3745 C.3     
  23 H23          -12.7862     5.8939     0.7677 H       
  24 H24          -11.4507     3.9347     0.8255 H       
  25 C25          -11.3832     8.4019     0.1560 C.3     
  26 O26           -8.8338     7.1380     0.3839 O.2     
  27 C27          -11.6450     8.8410     1.5980 C.3     
  28 C28          -11.9909    10.3312     1.6226 C.3     
  29 O29          -12.2354    10.7413     2.9695 O.3     
  30 C30          -12.5689    12.1243     3.1045 C.3     
  31 F31            0.4837     0.9705     1.1513 F       
  32 H32            0.0650    -1.5993     0.9975 H       
  33 H33           -2.1300    -2.6720     0.7122 H       
  34 H34           -4.1633    -1.3001     0.5466 H       
  35 H35           -1.7832     2.2466     0.9610 H       
  36 H36           -5.4140     4.7243     0.6607 H       
  37 H37           -7.7994     1.1692     0.2431 H       
  38 H38          -13.6448     5.5009    -1.4349 H       
  39 H39          -12.6897     6.9751    -1.7868 H       
  40 H40          -12.1923     4.7334    -3.1957 H       
  41 H41          -10.8067     5.6966    -2.5847 H       
  42 H42          -10.3386     3.5188    -1.6801 H       
  43 H43          -12.0710     3.1871    -1.3675 H       
  44 H44          -10.5472     8.9707    -0.2510 H       
  45 H45          -12.2734     8.5832    -0.4463 H       
  46 H46          -12.4773     8.2680     2.0069 H       
  47 H47          -10.7528     8.6651     2.1990 H       
  48 H48          -11.1586    10.9041     1.2137 H       
  49 H49          -12.8831    10.5070     1.0216 H       
  50 H50          -13.4731    12.3373     2.5342 H       
  51 H51          -12.7394    12.3559     4.1558 H       
  52 H52          -11.7487    12.7344     2.7263 H       
@<TRIPOS>BOND
   1    1    2 ar
   2    1   31 1
   3    1    6 ar
   4    2    3 ar
   5    2   32 1
   6    3    4 ar
   7    3   33 1
   8    4    5 ar
   9    4   34 1
  10    5    6 ar
  11    5    7 1
  12    6   35 1
  13    7    8 3
  14    8    9 1
  15    9   10 ar
  16    9   14 ar
  17   10   11 ar
  18   10   36 1
  19   11   12 ar
  20   12   13 ar
  21   12   15 1
  22   13   14 ar
  23   14   37 1
  24   15   16 am
  25   15   19 1
  26   16   17 am
  27   16   26 2
  28   17   18 1
  29   17   25 1
  30   18   19 1
  31   18   20 1
  32   18   23 1
  33   19   24 1
  34   19   22 1
  35   20   21 1
  36   20   38 1
  37   20   39 1
  38   21   22 1
  39   21   40 1
  40   21   41 1
  41   22   42 1
  42   22   43 1
  43   25   27 1
  44   25   44 1
  45   25   45 1
  46   27   28 1
  47   27   46 1
  48   27   47 1
  49   28   29 1
  50   28   48 1
  51   28   49 1
  52   29   30 1
  53   30   50 1
  54   30   51 1
  55   30   52 1

#	End of record

