#	Name: ASD03091024
#	Creating user name:	WinNT
#	Creation time:	15. 06. 2019 20:29

#	Modifying user name:	WinNT
#	Modification time:	15. 06. 2019 20:29

#	Program:	/corina/corina34_cracker 3.40 0067  02.08.2006

@<TRIPOS>MOLECULE
ASD03091024
  58   62    0    0    0
SMALL
NO_CHARGES


@<TRIPOS>ATOM
   1 C1            -0.1777     1.4406     0.0347 C.3     
   2 N2            -0.1015    -0.0224     0.0215 N.am    
   3 C3             0.0798    -0.7049     1.1941 C.2     
   4 N4             0.1565    -2.0087     1.2566 N.2     
   5 C5             0.0605    -2.7779     0.1530 C.ar    
   6 C6            -0.1280    -2.1587    -1.1038 C.ar    
   7 C7            -0.2164    -0.6915    -1.1493 C.2     
   8 C8             0.1948     0.0684     2.4486 C.ar    
   9 O9            -0.3782    -0.1008    -2.2013 O.2     
  10 C10            0.1437    -4.1719     0.2260 C.ar    
  11 C11            0.0429    -4.9205    -0.9111 C.ar    
  12 C12           -0.1431    -4.3143    -2.1537 C.ar    
  13 C13           -0.2291    -2.9360    -2.2552 C.ar    
  14 N14           -0.2429    -5.1029    -3.3031 N.3     
  15 C15            0.2095    -4.3636    -4.4899 C.3     
  16 C16            0.9702    -5.2853    -5.4314 C.3     
  17 C17            0.0753    -6.2526    -6.1797 C.3     
  18 N18           -1.3458    -6.0014    -5.9005 N.3     
  19 C19           -1.7205    -6.6082    -4.6141 C.3     
  20 C20           -1.6148    -5.5904    -3.4890 C.3     
  21 C21           -1.7207    -4.6163    -6.0886 C.3     
  22 C22           -0.9835    -3.6862    -5.1390 C.3     
  23 C23           -0.8040     0.9754     2.8069 C.ar    
  24 C24            1.2362     2.0250     0.0253 C.3     
  25 C25            1.1567     3.5529     0.0390 C.3     
  26 C26            1.2996    -0.1096     3.2827 C.ar    
  27 C27            1.4012     0.6147     4.4528 C.ar    
  28 C28            0.4111     1.5157     4.8006 C.ar    
  29 C29           -0.6904     1.6940     3.9802 C.ar    
  30 Cl30          -1.9280     2.8271     4.4254 Cl      
  31 O31            2.4773     4.0987     0.0302 O.3     
  32 H32           -0.7188     1.7842    -0.8470 H       
  33 H33           -0.7007     1.7691     0.9328 H       
  34 H34            0.2880    -4.6556     1.1808 H       
  35 H35            0.1084    -5.9967    -0.8479 H       
  36 H36           -0.3735    -2.4682    -3.2179 H       
  37 H37            0.8912    -3.5800    -4.1593 H       
  38 H38            1.5099    -4.6761    -6.1565 H       
  39 H39            1.6946    -5.8569    -4.8511 H       
  40 H40            0.2521    -6.1456    -7.2499 H       
  41 H41            0.3224    -7.2709    -5.8795 H       
  42 H42           -2.7462    -6.9721    -4.6739 H       
  43 H43           -1.0548    -7.4454    -4.4046 H       
  44 H44           -1.9540    -6.0526    -2.5619 H       
  45 H45           -2.2625    -4.7438    -3.7168 H       
  46 H46           -1.4952    -4.3252    -7.1145 H       
  47 H47           -2.7930    -4.5144    -5.9217 H       
  48 H48           -1.6714    -3.3574    -4.3601 H       
  49 H49           -0.6372    -2.8147    -5.6945 H       
  50 H50           -1.6632     1.1150     2.1677 H       
  51 H51            1.7773     1.6814     0.9069 H       
  52 H52            1.7592     1.6965    -0.8729 H       
  53 H53            0.6156     3.8965    -0.8427 H       
  54 H54            0.6337     3.8814     0.9371 H       
  55 H55            2.0733    -0.8131     3.0131 H       
  56 H56            2.2558     0.4776     5.0987 H       
  57 H57            0.4954     2.0798     5.7177 H       
  58 H58            2.5034     5.0653     0.0381 H       
@<TRIPOS>BOND
   1    1    2 1
   2    1   24 1
   3    1   32 1
   4    1   33 1
   5    2    3 1
   6    2    7 am
   7    3    4 2
   8    3    8 1
   9    4    5 1
  10    5    6 ar
  11    5   10 ar
  12    6    7 1
  13    6   13 ar
  14    7    9 2
  15    8   23 ar
  16    8   26 ar
  17   10   11 ar
  18   10   34 1
  19   11   12 ar
  20   11   35 1
  21   12   13 ar
  22   12   14 1
  23   13   36 1
  24   14   15 1
  25   14   20 1
  26   15   16 1
  27   15   22 1
  28   15   37 1
  29   16   17 1
  30   16   38 1
  31   16   39 1
  32   17   18 1
  33   17   40 1
  34   17   41 1
  35   18   19 1
  36   18   21 1
  37   19   20 1
  38   19   42 1
  39   19   43 1
  40   20   44 1
  41   20   45 1
  42   21   22 1
  43   21   46 1
  44   21   47 1
  45   22   48 1
  46   22   49 1
  47   23   29 ar
  48   23   50 1
  49   24   25 1
  50   24   51 1
  51   24   52 1
  52   25   31 1
  53   25   53 1
  54   25   54 1
  55   26   27 ar
  56   26   55 1
  57   27   28 ar
  58   27   56 1
  59   28   29 ar
  60   28   57 1
  61   29   30 1
  62   31   58 1

#	End of record

