#	Name: ASD03092204
#	Creating user name:	WinNT
#	Creation time:	15. 06. 2019 20:32

#	Modifying user name:	WinNT
#	Modification time:	15. 06. 2019 20:32

#	Program:	/corina/corina34_cracker 3.40 0067  02.08.2006

@<TRIPOS>MOLECULE
ASD03092204
  48   50    0    0    0
SMALL
NO_CHARGES


@<TRIPOS>ATOM
   1 C1            -0.0794     1.5690     0.3233 C.ar    
   2 C2            -0.0323     0.1953     0.2027 C.ar    
   3 C3            -1.2319    -0.5196     0.1169 C.ar    
   4 C4            -2.4323     0.1978     0.1577 C.ar    
   5 C5            -2.3870     1.5714     0.2800 C.ar    
   6 N6            -1.2337     2.2064     0.3629 N.ar    
   7 C7            -1.2309    -1.9939    -0.0139 C.2     
   8 C8            -3.6726     2.3565     0.3246 C.3     
   9 C9             1.2052     2.3514     0.4172 C.3     
  10 N10           -2.2633    -2.8180     0.2724 N.pl3   
  11 N11           -1.8161    -4.1214     0.0015 N.2     
  12 C12           -0.5764    -4.0205    -0.4210 C.2     
  13 N13           -0.2253    -2.7340    -0.4354 N.2     
  14 C14           -3.5860    -2.4289     0.7676 C.3     
  15 C15           -4.5386    -2.2422    -0.4150 C.3     
  16 O16           -4.7346    -3.4964    -1.0714 O.3     
  17 C17           -5.8831    -1.7160     0.0913 C.3     
  18 C18           -6.7930    -1.4114    -1.1004 C.3     
  19 N19            0.2403    -5.0878    -0.7989 N.pl3   
  20 C20            1.5238    -4.8431    -1.3022 C.ar    
  21 C21            2.0426    -3.5558    -1.2868 C.ar    
  22 C22            3.3097    -3.3151    -1.7838 C.ar    
  23 C23            4.0631    -4.3560    -2.2975 C.ar    
  24 C24            3.5490    -5.6440    -2.3150 C.ar    
  25 C25            2.2827    -5.8904    -1.8130 C.ar    
  26 F26            4.2859    -6.6588    -2.8173 F       
  27 F27            1.7806    -7.1445    -1.8294 F       
  28 F28            5.3010    -4.1171    -2.7829 F       
  29 H29            0.9162    -0.3203     0.1747 H       
  30 H30           -3.3802    -0.3159     0.0940 H       
  31 H31           -4.0022     2.4553     1.3588 H       
  32 H32           -3.5086     3.3466    -0.1007 H       
  33 H33           -4.4367     1.8354    -0.2521 H       
  34 H34            1.5346     2.6305    -0.5837 H       
  35 H35            1.0401     3.2513     1.0095 H       
  36 H36            1.9701     1.7381     0.8936 H       
  37 H37           -3.9714    -3.2080     1.4252 H       
  38 H38           -3.5060    -1.4932     1.3209 H       
  39 H39           -4.1100    -1.5276    -1.1176 H       
  40 H40           -5.1142    -4.1818    -0.5046 H       
  41 H41           -6.3530    -2.4690     0.7240 H       
  42 H42           -5.7229    -0.8052     0.6682 H       
  43 H43           -7.7509    -1.0365    -0.7397 H       
  44 H44           -6.3231    -0.6584    -1.7332 H       
  45 H45           -6.9533    -2.3222    -1.6774 H       
  46 H46           -0.0813    -5.9988    -0.7127 H       
  47 H47            1.4560    -2.7420    -0.8867 H       
  48 H48            3.7122    -2.3130    -1.7717 H       
@<TRIPOS>BOND
   1    1    2 ar
   2    1    9 1
   3    1    6 ar
   4    2    3 ar
   5    2   29 1
   6    3    4 ar
   7    3    7 1
   8    4    5 ar
   9    4   30 1
  10    5    6 ar
  11    5    8 1
  12    7   10 1
  13    7   13 2
  14    8   31 1
  15    8   32 1
  16    8   33 1
  17    9   34 1
  18    9   35 1
  19    9   36 1
  20   10   11 1
  21   10   14 1
  22   11   12 2
  23   12   13 1
  24   12   19 1
  25   14   15 1
  26   14   37 1
  27   14   38 1
  28   15   16 1
  29   15   17 1
  30   15   39 1
  31   16   40 1
  32   17   18 1
  33   17   41 1
  34   17   42 1
  35   18   43 1
  36   18   44 1
  37   18   45 1
  38   19   20 1
  39   19   46 1
  40   20   21 ar
  41   20   25 ar
  42   21   22 ar
  43   21   47 1
  44   22   23 ar
  45   22   48 1
  46   23   24 ar
  47   23   28 1
  48   24   25 ar
  49   24   26 1
  50   25   27 1

#	End of record

