#	Name: ASD01180027
#	Creating user name:	WinNT
#	Creation time:	15. 06. 2019 19:06

#	Modifying user name:	WinNT
#	Modification time:	15. 06. 2019 19:06

#	Program:	/corina/corina34_cracker 3.40 0067  02.08.2006

@<TRIPOS>MOLECULE
ASD01180027
  36   37    0    0    0
SMALL
NO_CHARGES


@<TRIPOS>ATOM
   1 N1            -0.1558     1.3771     0.0515 N.ar    
   2 C2            -0.0903     0.0677     0.0562 C.ar    
   3 C3             1.1279    -0.5892    -0.1920 C.ar    
   4 N4             2.2250     0.1029    -0.4332 N.ar    
   5 C5             2.1757     1.4411    -0.4416 C.ar    
   6 C6             3.3265     2.2053    -0.6955 C.ar    
   7 C7             3.2476     3.5655    -0.6985 C.ar    
   8 C8             2.0365     4.2133    -0.4523 C.ar    
   9 C9             0.9013     3.5030    -0.2024 C.ar    
  10 C10            0.9457     2.0990    -0.1914 C.ar    
  11 S11           -1.5422    -0.8776     0.3770 S.o2    
  12 O12           -1.0513    -2.1236     0.8520 O.2     
  13 O13           -2.3317    -0.0367     1.2070 O.2     
  14 C14           -2.3202    -1.0783    -1.2494 C.3     
  15 Cl15           1.9758     5.9482    -0.4641 Cl      
  16 Cl16           4.6731     4.5052    -1.0124 Cl      
  17 C17            1.7711    -2.4895    -1.4239 C.3     
  18 N18            1.1767    -1.9754    -0.1828 N.3     
  19 C19            1.9052    -2.4687     0.9935 C.3     
  20 C20            1.7219    -4.0187    -1.4177 C.3     
  21 C21            0.9844    -1.9589    -2.6241 C.3     
  22 H22            4.2703     1.7166    -0.8873 H       
  23 H23           -0.0293     4.0173    -0.0131 H       
  24 H24           -1.6054    -1.5232    -1.9417 H       
  25 H25           -3.1905    -1.7283    -1.1581 H       
  26 H26           -2.6323    -0.1040    -1.6256 H       
  27 H27            2.8075    -2.1596    -1.4943 H       
  28 H28            1.4779    -2.0306     1.8956 H       
  29 H29            1.8229    -3.5545     1.0429 H       
  30 H30            2.9552    -2.1871     0.9151 H       
  31 H31            2.1630    -4.4002    -2.3386 H       
  32 H32            2.2823    -4.3967    -0.5626 H       
  33 H33            0.6854    -4.3486    -1.3474 H       
  34 H34            1.0346    -0.8701    -2.6389 H       
  35 H35            1.4143    -2.3549    -3.5442 H       
  36 H36           -0.0561    -2.2736    -2.5444 H       
@<TRIPOS>BOND
   1    1    2 ar
   2    1   10 ar
   3    2    3 ar
   4    2   11 1
   5    3    4 ar
   6    3   18 1
   7    4    5 ar
   8    5    6 ar
   9    5   10 ar
  10    6    7 ar
  11    6   22 1
  12    7    8 ar
  13    7   16 1
  14    8    9 ar
  15    8   15 1
  16    9   10 ar
  17    9   23 1
  18   11   12 2
  19   11   13 2
  20   11   14 1
  21   14   24 1
  22   14   25 1
  23   14   26 1
  24   17   20 1
  25   17   21 1
  26   17   18 1
  27   17   27 1
  28   18   19 1
  29   19   28 1
  30   19   29 1
  31   19   30 1
  32   20   31 1
  33   20   32 1
  34   20   33 1
  35   21   34 1
  36   21   35 1
  37   21   36 1

#	End of record

