#	Name: ASD09116493
#	Creating user name:	WinNT
#	Creation time:	15. 06. 2019 21:21

#	Modifying user name:	WinNT
#	Modification time:	15. 06. 2019 21:21

#	Program:	/corina/corina34_cracker 3.40 0067  02.08.2006

@<TRIPOS>MOLECULE
ASD09116493
  73   79    0    0    0
SMALL
NO_CHARGES


@<TRIPOS>ATOM
   1 N1            -0.4325     3.4518     0.5127 N.2     
   2 N2            -1.0556     4.5807     1.0685 N.pl3   
   3 C3             0.8537     3.7048     0.4737 C.2     
   4 N4             1.0732     4.9269     0.9729 N.2     
   5 C5            -0.0695     5.4687     1.3364 C.2     
   6 N6            -0.2339     6.7227     1.8933 N.pl3   
   7 C7            -2.4217     4.7536     1.2986 C.ar    
   8 N8             1.8352     2.8392    -0.0098 N.pl3   
   9 C9             3.1622     3.2677    -0.0991 C.ar    
  10 C10            4.1994     2.3531     0.0367 C.ar    
  11 C11            3.4468     4.6083    -0.3295 C.ar    
  12 C12            4.7635     5.0212    -0.4159 C.ar    
  13 C13            5.7847     4.1169    -0.2765 C.ar    
  14 C14            5.5107     2.7783    -0.0522 C.ar    
  15 N15           -2.8345     5.5933     2.2363 N.ar    
  16 N16           -4.0796     5.7814     2.4947 N.ar    
  17 C17           -5.0299     5.1402     1.8335 C.ar    
  18 C18           -4.6893     4.2497     0.8114 C.ar    
  19 C19           -3.3537     4.0451     0.5360 C.ar    
  20 C20           -6.4630     5.3142     2.1656 C.ar    
  21 C21           -7.2552     4.1800     2.3504 C.ar    
  22 C22           -6.6243     2.8173     2.2635 C.3     
  23 C23           -6.3733     2.4114     0.8137 C.3     
  24 C24           -5.7718     3.5707     0.0238 C.3     
  25 C25           -7.0223     6.5811     2.2896 C.ar    
  26 C26           -8.3674     6.7095     2.5775 C.ar    
  27 C27           -9.1533     5.5831     2.7393 C.ar    
  28 C28           -8.5986     4.3201     2.6250 C.ar    
  29 C29            5.0708     6.4833    -0.6653 C.3     
  30 C30            5.6221     6.6274    -2.0859 C.3     
  31 C31            7.1173     6.3792    -2.1146 C.3     
  32 C32            7.5205     4.9464    -1.8272 C.3     
  33 C33            7.2251     4.5763    -0.3720 C.3     
  34 N34            7.6256     6.7489    -3.4424 N.3     
  35 C35            9.1014     6.6640    -3.4875 C.3     
  36 C36            7.2911     8.1593    -3.7666 C.3     
  37 C37            8.3077     8.5179    -4.8795 C.3     
  38 C38            9.5899     7.7825    -4.4265 C.3     
  39 O39            8.5254     9.9294    -4.9298 O.3     
  40 H40            0.5378     7.2895     2.0483 H       
  41 H41           -1.1211     7.0361     2.1291 H       
  42 H42            1.5964     1.9400    -0.2840 H       
  43 H43            3.9804     1.3102     0.2121 H       
  44 H44            2.6446     5.3229    -0.4408 H       
  45 H45            6.3189     2.0702     0.0566 H       
  46 H46           -3.0397     3.3567    -0.2347 H       
  47 H47           -5.6755     2.8287     2.7999 H       
  48 H48           -7.2868     2.0873     2.7286 H       
  49 H49           -5.6847     1.5667     0.7917 H       
  50 H50           -7.3170     2.1162     0.3552 H       
  51 H51           -6.5553     4.2930    -0.2052 H       
  52 H52           -5.3525     3.1904    -0.9077 H       
  53 H53           -6.4083     7.4604     2.1619 H       
  54 H54           -8.8060     7.6915     2.6766 H       
  55 H55          -10.2061     5.6895     2.9558 H       
  56 H56           -9.2181     3.4445     2.7517 H       
  57 H57            4.1588     7.0717    -0.5648 H       
  58 H58            5.8143     6.8290     0.0530 H       
  59 H59            5.1269     5.9071    -2.7371 H       
  60 H60            5.4193     7.6352    -2.4483 H       
  61 H61            7.5894     7.0262    -1.3753 H       
  62 H62            6.9652     4.2791    -2.4863 H       
  63 H63            8.5874     4.8297    -2.0170 H       
  64 H64            7.3745     5.4478     0.2652 H       
  65 H65            7.8882     3.7705    -0.0572 H       
  66 H66            9.5126     6.8116    -2.4888 H       
  67 H67            9.4057     5.6926    -3.8773 H       
  68 H68            6.2697     8.2366    -4.1392 H       
  69 H69            7.4332     8.7985    -2.8952 H       
  70 H70            7.9696     8.1440    -5.8459 H       
  71 H71           10.2485     8.4658    -3.8904 H       
  72 H72           10.1053     7.3559    -5.2870 H       
  73 H73            9.1541    10.2063    -5.6103 H       
@<TRIPOS>BOND
   1    1    2 1
   2    1    3 2
   3    2    7 1
   4    2    5 1
   5    3    4 1
   6    3    8 1
   7    4    5 2
   8    5    6 1
   9    6   40 1
  10    6   41 1
  11    7   15 ar
  12    7   19 ar
  13    8    9 1
  14    8   42 1
  15    9   10 ar
  16    9   11 ar
  17   10   14 ar
  18   10   43 1
  19   11   12 ar
  20   11   44 1
  21   12   13 ar
  22   12   29 1
  23   13   14 ar
  24   13   33 1
  25   14   45 1
  26   15   16 ar
  27   16   17 ar
  28   17   18 ar
  29   17   20 1
  30   18   19 ar
  31   18   24 1
  32   19   46 1
  33   20   21 ar
  34   20   25 ar
  35   21   22 1
  36   21   28 ar
  37   22   23 1
  38   22   47 1
  39   22   48 1
  40   23   24 1
  41   23   49 1
  42   23   50 1
  43   24   51 1
  44   24   52 1
  45   25   26 ar
  46   25   53 1
  47   26   27 ar
  48   26   54 1
  49   27   28 ar
  50   27   55 1
  51   28   56 1
  52   29   30 1
  53   29   57 1
  54   29   58 1
  55   30   31 1
  56   30   59 1
  57   30   60 1
  58   31   32 1
  59   31   34 1
  60   31   61 1
  61   32   33 1
  62   32   62 1
  63   32   63 1
  64   33   64 1
  65   33   65 1
  66   34   35 1
  67   34   36 1
  68   35   38 1
  69   35   66 1
  70   35   67 1
  71   36   37 1
  72   36   68 1
  73   36   69 1
  74   37   38 1
  75   37   39 1
  76   37   70 1
  77   38   71 1
  78   38   72 1
  79   39   73 1

#	End of record

