#	Name: ASD04590223
#	Creating user name:	WinNT
#	Creation time:	15. 06. 2019 20:50

#	Modifying user name:	WinNT
#	Modification time:	15. 06. 2019 20:50

#	Program:	/corina/corina34_cracker 3.40 0067  02.08.2006

@<TRIPOS>MOLECULE
ASD04590223
  59   62    0    0    0
SMALL
NO_CHARGES


@<TRIPOS>ATOM
   1 N1            -0.0374     1.3024     0.4609 N.pl3   
   2 N2            -0.0270     0.0191     0.4094 N.2     
   3 C3             1.2067    -0.4221     0.2571 C.2     
   4 C4             2.0527     0.7160     0.2093 C.2     
   5 C5             1.2255     1.7870     0.3418 C.2     
   6 C6             1.6275    -1.8323     0.1562 C.2     
   7 N7             0.7082    -2.8159     0.2181 N.am    
   8 N8             3.4472     0.7328     0.0575 N.am    
   9 O9             2.8037    -2.1073     0.0172 O.2     
  10 C10            4.1082     1.9071     0.0313 C.2     
  11 C11            5.5746     1.9247    -0.1284 C.ar    
  12 O12            3.4957     2.9521     0.1393 O.2     
  13 C13            1.1261    -4.2165     0.1179 C.3     
  14 C14            1.9834    -6.1859     1.3942 C.3     
  15 C15            1.5469    -4.7232     1.4988 C.3     
  16 C16            6.4053     1.8860     0.9968 C.ar    
  17 C17            7.7783     1.9029     0.8380 C.ar    
  18 C18            8.3313     1.9585    -0.4285 C.ar    
  19 C19            7.5176     1.9975    -1.5461 C.ar    
  20 C20            6.1427     1.9745    -1.4060 C.ar    
  21 F21            5.8671     1.8327     2.2348 F       
  22 F22            5.3495     2.0122    -2.4990 F       
  23 C23           -0.0395    -5.0605    -0.4017 C.3     
  24 C24            0.3969    -6.5232    -0.5063 C.3     
  25 C25            0.8178    -7.0299     0.8746 C.3     
  26 N26            1.2368    -8.4343     0.7741 N.3     
  27 C27            0.0852    -9.3376     0.8997 C.3     
  28 C28            0.3841   -10.6529     0.1737 C.3     
  29 C29           -0.1760    -9.6321     2.3800 C.3     
  30 C30           -1.3267   -10.6350     2.4974 C.3     
  31 O31           -0.9970   -11.8230     1.7748 O.3     
  32 C32           -0.7883   -11.6163     0.3763 C.3     
  33 H33           -0.8331     1.8471     0.5655 H       
  34 H34            1.5177     2.8266     0.3506 H       
  35 H35           -0.2302    -2.5965     0.3290 H       
  36 H36            3.9358    -0.1007    -0.0286 H       
  37 H37            1.9675    -4.2962    -0.5704 H       
  38 H38            2.8248    -6.2656     0.7059 H       
  39 H39            2.2832    -6.5468     2.3780 H       
  40 H40            2.3773    -4.1218     1.8689 H       
  41 H41            0.7055    -4.6434     2.1871 H       
  42 H42            8.4210     1.8731     1.7054 H       
  43 H43            9.4049     1.9718    -0.5453 H       
  44 H44            7.9577     2.0415    -2.5314 H       
  45 H45           -0.8810    -4.9808     0.2866 H       
  46 H46           -0.3393    -4.6995    -1.3855 H       
  47 H47           -0.4334    -7.1245    -0.8765 H       
  48 H48            1.2384    -6.6029    -1.1946 H       
  49 H49           -0.0237    -6.9502     1.5629 H       
  50 H50            1.7358    -8.6021    -0.0867 H       
  51 H51           -0.7950    -8.8696     0.4588 H       
  52 H52            0.5168   -10.4594    -0.8907 H       
  53 H53            1.2935   -11.0950     0.5807 H       
  54 H54            0.7220   -10.0537     2.8315 H       
  55 H55           -0.4439    -8.7087     2.8934 H       
  56 H56           -1.4889   -10.8810     3.5468 H       
  57 H57           -2.2344   -10.1971     2.0821 H       
  58 H58           -1.6889   -11.1913    -0.0667 H       
  59 H59           -0.5625   -12.5693    -0.1022 H       
@<TRIPOS>BOND
   1    1    2 1
   2    1    5 1
   3    1   33 1
   4    2    3 2
   5    3    4 1
   6    3    6 1
   7    4    5 2
   8    4    8 1
   9    5   34 1
  10    6    7 am
  11    6    9 2
  12    7   13 1
  13    7   35 1
  14    8   10 am
  15    8   36 1
  16   10   11 1
  17   10   12 2
  18   11   16 ar
  19   11   20 ar
  20   13   23 1
  21   13   15 1
  22   13   37 1
  23   14   15 1
  24   14   25 1
  25   14   38 1
  26   14   39 1
  27   15   40 1
  28   15   41 1
  29   16   17 ar
  30   16   21 1
  31   17   18 ar
  32   17   42 1
  33   18   19 ar
  34   18   43 1
  35   19   20 ar
  36   19   44 1
  37   20   22 1
  38   23   24 1
  39   23   45 1
  40   23   46 1
  41   24   25 1
  42   24   47 1
  43   24   48 1
  44   25   26 1
  45   25   49 1
  46   26   27 1
  47   26   50 1
  48   27   28 1
  49   27   29 1
  50   27   51 1
  51   28   32 1
  52   28   52 1
  53   28   53 1
  54   29   30 1
  55   29   54 1
  56   29   55 1
  57   30   31 1
  58   30   56 1
  59   30   57 1
  60   31   32 1
  61   32   58 1
  62   32   59 1

#	End of record

