#	Name: ASD04910435
#	Creating user name:	WinNT
#	Creation time:	15. 06. 2019 20:55

#	Modifying user name:	WinNT
#	Modification time:	15. 06. 2019 20:55

#	Program:	/corina/corina34_cracker 3.40 0067  02.08.2006

@<TRIPOS>MOLECULE
ASD04910435
  52   54    0    0    0
SMALL
NO_CHARGES


@<TRIPOS>ATOM
   1 C1            -0.0184     1.5028     0.0103 C.2     
   2 C2             0.0021    -0.0041     0.0020 C.3     
   3 C3             1.4513    -0.4944    -0.0145 C.3     
   4 O4             1.0197     2.1211     0.0037 O.2     
   5 O5            -1.1898     2.1580     0.0194 O.3     
   6 C6             2.6473    -2.6171    -0.0373 C.2     
   7 C7             2.6674    -4.0954    -0.0454 C.ar    
   8 C8             3.8837    -4.7799    -0.0607 C.ar    
   9 C9             3.8954    -6.1594    -0.0677 C.ar    
  10 C10            2.7049    -6.8644    -0.0601 C.ar    
  11 C11            1.4958    -6.1920    -0.0450 C.ar    
  12 C12            1.4701    -4.8127    -0.0320 C.ar    
  13 O13            3.6916    -1.9951    -0.0439 O.2     
  14 N14            1.4712    -1.9592    -0.0225 N.am    
  15 C15            2.7254    -8.3712    -0.0689 C.3     
  16 C16            2.4957    -8.8926     1.3511 C.3     
  17 N17            1.6654    -8.8688    -0.9493 N.pl3   
  18 C18            2.8967   -10.9217    -1.2949 C.ar    
  19 C19            1.7812   -10.1321    -1.5383 C.ar    
  20 C20            0.7782   -10.6144    -2.3768 C.ar    
  21 C21            0.9353   -11.8699    -2.9370 C.ar    
  22 C22            2.0791   -12.6026    -2.6474 C.ar    
  23 N23            3.0118   -12.1137    -1.8468 N.ar    
  24 C24            1.4309   -14.4696    -4.1177 C.2     
  25 N25            1.9148   -15.6481    -4.4008 N.2     
  26 C26            3.0388   -15.8482    -3.6967 C.2     
  27 C27            3.2653   -14.7537    -2.9460 C.2     
  28 N28            2.2468   -13.8739    -3.2091 N.pl3   
  29 C29            3.8994   -17.0846    -3.7384 C.3     
  30 F30            3.4115   -17.9596    -4.7149 F       
  31 F31            5.2156   -16.7265    -4.0489 F       
  32 F32            3.8698   -17.7156    -2.4902 F       
  33 F33            1.2545    -8.4458     1.8168 F       
  34 F34            2.5147   -10.2915     1.3429 F       
  35 F35            3.5079    -8.4174     2.1918 F       
  36 H36           -0.4983    -0.3791     0.8948 H       
  37 H37           -0.5153    -0.3696    -0.8850 H       
  38 H38            1.9516    -0.1193    -0.9073 H       
  39 H39            1.9686    -0.1289     0.8726 H       
  40 H40           -1.1523     3.1243     0.0245 H       
  41 H41            4.8137    -4.2307    -0.0674 H       
  42 H42            4.8359    -6.6902    -0.0796 H       
  43 H43            0.5700    -6.7482    -0.0391 H       
  44 H44            0.5257    -4.2891    -0.0157 H       
  45 H45            0.6378    -2.4556    -0.0172 H       
  46 H46            3.6924    -8.7193    -0.4318 H       
  47 H47            0.8833    -8.3222    -1.1236 H       
  48 H48            3.6809   -10.5539    -0.6499 H       
  49 H49           -0.1011   -10.0225    -2.5841 H       
  50 H50            0.1776   -12.2752    -3.5912 H       
  51 H51            0.5347   -14.0383    -4.5387 H       
  52 H52            4.0907   -14.5984    -2.2669 H       
@<TRIPOS>BOND
   1    1    2 1
   2    1    4 2
   3    1    5 1
   4    2    3 1
   5    2   36 1
   6    2   37 1
   7    3   14 1
   8    3   38 1
   9    3   39 1
  10    5   40 1
  11    6    7 1
  12    6   13 2
  13    6   14 am
  14    7    8 ar
  15    7   12 ar
  16    8    9 ar
  17    8   41 1
  18    9   10 ar
  19    9   42 1
  20   10   11 ar
  21   10   15 1
  22   11   12 ar
  23   11   43 1
  24   12   44 1
  25   14   45 1
  26   15   16 1
  27   15   17 1
  28   15   46 1
  29   16   33 1
  30   16   34 1
  31   16   35 1
  32   17   19 1
  33   17   47 1
  34   18   19 ar
  35   18   23 ar
  36   18   48 1
  37   19   20 ar
  38   20   21 ar
  39   20   49 1
  40   21   22 ar
  41   21   50 1
  42   22   23 ar
  43   22   28 1
  44   24   25 2
  45   24   28 1
  46   24   51 1
  47   25   26 1
  48   26   27 2
  49   26   29 1
  50   27   28 1
  51   27   52 1
  52   29   30 1
  53   29   31 1
  54   29   32 1

#	End of record

