#	Name: ASD05313077
#	Creating user name:	WinNT
#	Creation time:	15. 06. 2019 20:58

#	Modifying user name:	WinNT
#	Modification time:	15. 06. 2019 20:58

#	Program:	/corina/corina34_cracker 3.40 0067  02.08.2006

@<TRIPOS>MOLECULE
ASD05313077
  41   44    0    0    0
SMALL
NO_CHARGES


@<TRIPOS>ATOM
   1 C1            -0.0022     0.7935     1.0159 C.2     
   2 C2             0.1813    -0.6510     0.6160 C.3     
   3 N3             1.0171     1.6972     1.0704 N.pl3   
   4 N4             1.5464    -0.7756     0.0707 N.am    
   5 C5             2.6423    -0.1013     0.7827 C.3     
   6 C6             2.4137     1.4144     0.7449 C.3     
   7 N7            -0.8302     2.6393     1.6393 N.2     
   8 N8            -1.0913     1.4072     1.3659 N.2     
   9 C9             0.4566     2.8696     1.4748 C.2     
  10 C10            0.6524     5.3378     1.1531 C.ar    
  11 C11            1.1578     4.1542     1.6917 C.ar    
  12 C12            2.3385     4.2024     2.4408 C.ar    
  13 C13            2.9555     5.4291     2.6147 C.ar    
  14 C14            2.3908     6.5572     2.0480 C.ar    
  15 N15            1.2759     6.4815     1.3467 N.ar    
  16 C16           -0.6147     5.3064     0.3380 C.3     
  17 C17            1.7826    -1.4881    -1.0487 C.2     
  18 O18            2.8953    -1.4998    -1.5383 O.2     
  19 C19            0.6900    -2.2545    -1.6803 C.ar    
  20 C20            0.5075    -2.2046    -3.0656 C.ar    
  21 C21           -0.5152    -2.9236    -3.6497 C.ar    
  22 C22           -1.3598    -3.6936    -2.8656 C.ar    
  23 C23           -1.1831    -3.7459    -1.4912 C.ar    
  24 C24           -0.1615    -3.0366    -0.8970 C.ar    
  25 F25           -2.3596    -4.3956    -3.4426 F       
  26 Cl26           1.5647    -1.2400    -4.0482 Cl      
  27 H27            0.0685    -1.2956     1.4877 H       
  28 H28           -0.5499    -0.9220    -0.1456 H       
  29 H29            2.6660    -0.4397     1.8186 H       
  30 H30            3.5903    -0.3386     0.2999 H       
  31 H31            2.6388     1.7914    -0.2527 H       
  32 H32            3.0630     1.8995     1.4738 H       
  33 H33            2.7575     3.3055     2.8725 H       
  34 H34            3.8682     5.5045     3.1872 H       
  35 H35            2.8700     7.5157     2.1821 H       
  36 H36           -1.4727     5.4511     0.9945 H       
  37 H37           -0.5880     6.1027    -0.4059 H       
  38 H38           -0.6999     4.3427    -0.1642 H       
  39 H39           -0.6579    -2.8860    -4.7196 H       
  40 H40           -1.8449    -4.3471    -0.8854 H       
  41 H41           -0.0224    -3.0824     0.1730 H       
@<TRIPOS>BOND
   1    1    2 1
   2    1    3 1
   3    1    8 2
   4    2    4 1
   5    2   27 1
   6    2   28 1
   7    3    6 1
   8    3    9 1
   9    4    5 1
  10    4   17 am
  11    5    6 1
  12    5   29 1
  13    5   30 1
  14    6   31 1
  15    6   32 1
  16    7    8 1
  17    7    9 2
  18    9   11 1
  19   10   11 ar
  20   10   15 ar
  21   10   16 1
  22   11   12 ar
  23   12   13 ar
  24   12   33 1
  25   13   14 ar
  26   13   34 1
  27   14   15 ar
  28   14   35 1
  29   16   36 1
  30   16   37 1
  31   16   38 1
  32   17   18 2
  33   17   19 1
  34   19   20 ar
  35   19   24 ar
  36   20   21 ar
  37   20   26 1
  38   21   22 ar
  39   21   39 1
  40   22   23 ar
  41   22   25 1
  42   23   24 ar
  43   23   40 1
  44   24   41 1

#	End of record

