#	Name: ASD08070480
#	Creating user name:	WinNT
#	Creation time:	15. 06. 2019 21:14

#	Modifying user name:	WinNT
#	Modification time:	15. 06. 2019 21:14

#	Program:	/corina/corina34_cracker 3.40 0067  02.08.2006

@<TRIPOS>MOLECULE
ASD08070480
  36   38    0    0    0
SMALL
NO_CHARGES


@<TRIPOS>ATOM
   1 C1             0.0154     1.4023     0.0314 C.3     
   2 N2            -0.1879    -0.0410     0.1960 N.am    
   3 C3             0.5467    -0.7067     1.2846 C.3     
   4 C4             2.0394    -0.6025     0.9757 C.3     
   5 C5             2.4089     0.8039     0.5839 C.ar    
   6 C6             3.7470     1.1679     0.6764 C.ar    
   7 C7             4.1547     2.4375     0.3248 C.ar    
   8 C8             3.2262     3.3582    -0.1247 C.ar    
   9 C9             1.8968     3.0009    -0.2140 C.ar    
  10 C10            1.4845     1.7241     0.1433 C.ar    
  11 C11           -1.0141    -0.7298    -0.6161 C.2     
  12 O12           -1.0938    -1.9391    -0.5182 O.2     
  13 N13           -1.7520    -0.0781    -1.5366 N.am    
  14 C14           -2.5320    -0.7972    -2.4409 C.ar    
  15 C15           -3.5729    -0.1618    -3.1353 C.ar    
  16 C16           -4.3471    -0.8935    -4.0385 C.ar    
  17 C17           -4.0851    -2.2316    -4.2422 C.ar    
  18 C18           -3.0573    -2.8555    -3.5549 C.ar    
  19 C19           -2.2794    -2.1433    -2.6632 C.ar    
  20 C20           -3.8400     1.2283    -2.9186 C.1     
  21 N21           -4.0519     2.3310    -2.7467 N.1     
  22 H22           -0.3499     1.7107    -0.9482 H       
  23 H23           -0.5331     1.9367     0.8071 H       
  24 H24            0.3306    -0.2122     2.2317 H       
  25 H25            0.2538    -1.7552     1.3400 H       
  26 H26            2.6093    -0.8900     1.8593 H       
  27 H27            2.2840    -1.2788     0.1566 H       
  28 H28            4.4739     0.4502     1.0270 H       
  29 H29            5.1965     2.7121     0.4007 H       
  30 H30            3.5404     4.3529    -0.4043 H       
  31 H31            1.1710     3.7199    -0.5642 H       
  32 H32           -1.7402     0.8912    -1.5698 H       
  33 H33           -5.1502    -0.4118    -4.5765 H       
  34 H34           -4.6846    -2.7962    -4.9410 H       
  35 H35           -2.8600    -3.9043    -3.7205 H       
  36 H36           -1.4764    -2.6358    -2.1349 H       
@<TRIPOS>BOND
   1    1    2 1
   2    1   10 1
   3    1   22 1
   4    1   23 1
   5    2    3 1
   6    2   11 am
   7    3    4 1
   8    3   24 1
   9    3   25 1
  10    4    5 1
  11    4   26 1
  12    4   27 1
  13    5    6 ar
  14    5   10 ar
  15    6    7 ar
  16    6   28 1
  17    7    8 ar
  18    7   29 1
  19    8    9 ar
  20    8   30 1
  21    9   10 ar
  22    9   31 1
  23   11   12 2
  24   11   13 am
  25   13   14 1
  26   13   32 1
  27   14   15 ar
  28   14   19 ar
  29   15   16 ar
  30   15   20 1
  31   16   17 ar
  32   16   33 1
  33   17   18 ar
  34   17   34 1
  35   18   19 ar
  36   18   35 1
  37   19   36 1
  38   20   21 3

#	End of record

