#	Name: ASD01911383
#	Creating user name:	WinNT
#	Creation time:	15. 06. 2019 19:57

#	Modifying user name:	WinNT
#	Modification time:	15. 06. 2019 19:57

#	Program:	/corina/corina34_cracker 3.40 0067  02.08.2006

@<TRIPOS>MOLECULE
ASD01911383
  35   36    0    0    0
SMALL
NO_CHARGES


@<TRIPOS>ATOM
   1 N1            -0.0169     1.3965     0.0097 N.2     
   2 N2             0.0021    -0.0041     0.0020 N.pl3   
   3 C3             1.2283     1.8226     0.0001 C.2     
   4 C4             2.0722     0.6951    -0.0140 C.2     
   5 C5             1.2909    -0.4069    -0.0125 C.2     
   6 C6             1.7728    -1.8348    -0.0238 C.3     
   7 C7             1.6660     3.2409     0.0031 C.ar    
   8 C8             0.7213     4.2610     0.0177 C.ar    
   9 C9            -1.1723    -0.8798     0.0090 C.3     
  10 C10           -1.5888    -1.1729    -1.4094 C.2     
  11 O11           -2.6491    -1.9606    -1.6484 O.3     
  12 O12           -0.9682    -0.6990    -2.3314 O.2     
  13 C13           -2.9925    -2.1997    -3.0388 C.3     
  14 C14            2.0684    -2.2846     1.4084 C.3     
  15 C15            1.1400     5.5913     0.0209 C.ar    
  16 C16            2.5044     5.8899     0.0095 C.ar    
  17 C17            3.4357     4.8710    -0.0054 C.ar    
  18 C18            3.0253     3.5522    -0.0028 C.ar    
  19 C19            0.1738     6.6481     0.0354 C.1     
  20 N20           -0.5927     7.4865     0.0469 N.1     
  21 H21            3.1521     0.7090    -0.0242 H       
  22 H22            1.0025    -2.4748    -0.4540 H       
  23 H23            2.6811    -1.9070    -0.6220 H       
  24 H24           -0.3324     4.0242     0.0261 H       
  25 H25           -0.9267    -1.8130     0.5158 H       
  26 H26           -1.9906    -0.3861     0.5332 H       
  27 H27           -3.8657    -2.8501    -3.0907 H       
  28 H28           -3.2168    -1.2508    -3.5260 H       
  29 H29           -2.1529    -2.6777    -3.5434 H       
  30 H30            2.8386    -1.6446     1.8387 H       
  31 H31            1.1601    -2.2124     2.0067 H       
  32 H32            2.4169    -3.3174     1.4003 H       
  33 H33            2.8312     6.9192     0.0119 H       
  34 H34            4.4898     5.1061    -0.0145 H       
  35 H35            3.7591     2.7598    -0.0145 H       
@<TRIPOS>BOND
   1    1    2 1
   2    1    3 2
   3    2    9 1
   4    2    5 1
   5    3    4 1
   6    3    7 1
   7    4    5 2
   8    4   21 1
   9    5    6 1
  10    6   14 1
  11    6   22 1
  12    6   23 1
  13    7    8 ar
  14    7   18 ar
  15    8   15 ar
  16    8   24 1
  17    9   10 1
  18    9   25 1
  19    9   26 1
  20   10   11 1
  21   10   12 2
  22   11   13 1
  23   13   27 1
  24   13   28 1
  25   13   29 1
  26   14   30 1
  27   14   31 1
  28   14   32 1
  29   15   16 ar
  30   15   19 1
  31   16   17 ar
  32   16   33 1
  33   17   18 ar
  34   17   34 1
  35   18   35 1
  36   19   20 3

#	End of record

