#	Name: ASD01910128
#	Creating user name:	WinNT
#	Creation time:	15. 06. 2019 19:55

#	Modifying user name:	WinNT
#	Modification time:	15. 06. 2019 19:55

#	Program:	/corina/corina34_cracker 3.40 0067  02.08.2006

@<TRIPOS>MOLECULE
ASD01910128
  30   31    0    0    0
SMALL
NO_CHARGES


@<TRIPOS>ATOM
   1 N1            -0.0407     1.3977     0.0346 N.am    
   2 C2            -0.0415    -0.0006     0.0882 C.ar    
   3 C3             1.0416    -0.6764     0.6343 C.ar    
   4 C4            -1.1280    -0.7148    -0.3995 C.ar    
   5 C5            -1.1257    -2.0958    -0.3451 C.ar    
   6 C6            -0.0416    -2.7663     0.1948 C.ar    
   7 C7             1.0384    -2.0569     0.6860 C.ar    
   8 Cl8           -2.4833    -2.9902    -0.9538 Cl      
   9 C9             1.1086     2.0625    -0.1970 C.2     
  10 O10            2.1574     1.4534    -0.2775 O.2     
  11 N11            1.0950     3.4027    -0.3391 N.am    
  12 C12            2.2769     4.0919    -0.4705 C.2     
  13 C13            3.5079     3.4950    -0.5867 C.2     
  14 C14            4.5040     4.4606    -0.7034 C.2     
  15 C15            3.7921     5.7961    -0.6518 C.3     
  16 N16            2.3695     5.4523    -0.5072 N.pl3   
  17 C17            1.2555     6.3988    -0.4115 C.3     
  18 O18            5.6998     4.2706    -0.8224 O.2     
  19 H19           -0.8680     1.8883     0.1601 H       
  20 H20            1.8860    -0.1232     1.0180 H       
  21 H21           -1.9740    -0.1918    -0.8205 H       
  22 H22           -0.0418    -3.8454     0.2368 H       
  23 H23            1.8828    -2.5827     1.1067 H       
  24 H24            0.2511     3.8808    -0.3488 H       
  25 H25            3.6791     2.4287    -0.5871 H       
  26 H26            4.1353     6.3771     0.2042 H       
  27 H27            3.9537     6.3491    -1.5771 H       
  28 H28            1.6278     7.4136    -0.5517 H       
  29 H29            0.5189     6.1722    -1.1823 H       
  30 H30            0.7908     6.3148     0.5709 H       
@<TRIPOS>BOND
   1    1    2 1
   2    1    9 am
   3    1   19 1
   4    2    3 ar
   5    2    4 ar
   6    3    7 ar
   7    3   20 1
   8    4    5 ar
   9    4   21 1
  10    5    6 ar
  11    5    8 1
  12    6    7 ar
  13    6   22 1
  14    7   23 1
  15    9   10 2
  16    9   11 am
  17   11   12 1
  18   11   24 1
  19   12   13 2
  20   12   16 1
  21   13   14 1
  22   13   25 1
  23   14   15 1
  24   14   18 2
  25   15   16 1
  26   15   26 1
  27   15   27 1
  28   16   17 1
  29   17   28 1
  30   17   29 1
  31   17   30 1

#	End of record

