#	Name: ASD02508415
#	Creating user name:	WinNT
#	Creation time:	15. 06. 2019 20:24

#	Modifying user name:	WinNT
#	Modification time:	15. 06. 2019 20:24

#	Program:	/corina/corina34_cracker 3.40 0067  02.08.2006

@<TRIPOS>MOLECULE
ASD02508415
  32   34    0    0    0
SMALL
NO_CHARGES


@<TRIPOS>ATOM
   1 N1             0.5503     1.4557     0.6083 N.2     
   2 C2             0.4172     0.1206     0.6117 C.2     
   3 C3             1.5686    -0.4186     0.1704 C.2     
   4 N4             2.4160     0.6252    -0.1054 N.pl3   
   5 C5             1.7419     1.7711     0.1813 C.2     
   6 C6             3.7211     0.5290    -0.5876 C.ar    
   7 N7             4.4124     1.6363    -0.8040 N.ar    
   8 N8             4.2395    -0.6675    -0.8125 N.ar    
   9 C9             5.4742    -0.7948    -1.2698 C.ar    
  10 C10            6.2254     0.3445    -1.5131 C.ar    
  11 C11            5.6525     1.5813    -1.2610 C.ar    
  12 S12            1.9207    -2.1349    -0.0167 S.o2    
  13 O13            1.6532    -2.4536    -1.3754 O.2     
  14 O14            3.1821    -2.3553     0.5994 O.2     
  15 N15            0.8080    -2.9649     0.8861 N.am    
  16 C16            0.7639    -2.7922     2.2729 C.ar    
  17 C17           -0.4531    -2.5887     2.9098 C.ar    
  18 C18           -0.4949    -2.4181     4.2802 C.ar    
  19 C19            0.6751    -2.4498     5.0189 C.ar    
  20 C20            1.8913    -2.6522     4.3857 C.ar    
  21 C21            1.9368    -2.8295     3.0159 C.ar    
  22 Cl22           3.3574    -2.6904     5.3146 Cl      
  23 F23            0.6317    -2.2827     6.3588 F       
  24 H24           -0.4623    -0.4271     0.9166 H       
  25 H25            2.1281     2.7739     0.0731 H       
  26 H26            5.8918    -1.7741    -1.4511 H       
  27 H27            7.2361     0.2700    -1.8865 H       
  28 H28            6.2102     2.4888    -1.4396 H       
  29 H29            0.1868    -3.5710     0.4529 H       
  30 H30           -1.3665    -2.5635     2.3341 H       
  31 H31           -1.4415    -2.2595     4.7755 H       
  32 H32            2.8844    -2.9876     2.5225 H       
@<TRIPOS>BOND
   1    1    2 1
   2    1    5 2
   3    2    3 2
   4    2   24 1
   5    3    4 1
   6    3   12 1
   7    4    5 1
   8    4    6 1
   9    5   25 1
  10    6    7 ar
  11    6    8 ar
  12    7   11 ar
  13    8    9 ar
  14    9   10 ar
  15    9   26 1
  16   10   11 ar
  17   10   27 1
  18   11   28 1
  19   12   13 2
  20   12   14 2
  21   12   15 am
  22   15   16 1
  23   15   29 1
  24   16   17 ar
  25   16   21 ar
  26   17   18 ar
  27   17   30 1
  28   18   19 ar
  29   18   31 1
  30   19   20 ar
  31   19   23 1
  32   20   21 ar
  33   20   22 1
  34   21   32 1

#	End of record

