#	Name: ASD01813722
#	Creating user name:	WinNT
#	Creation time:	15. 06. 2019 19:31

#	Modifying user name:	WinNT
#	Modification time:	15. 06. 2019 19:31

#	Program:	/corina/corina34_cracker 3.40 0067  02.08.2006

@<TRIPOS>MOLECULE
ASD01813722
  47   51    0    0    0
SMALL
NO_CHARGES


@<TRIPOS>ATOM
   1 C1            -0.0168     1.3835    -0.0514 C.ar    
   2 C2             0.0020    -0.0038    -0.0584 C.ar    
   3 C3             1.1977    -0.6920    -0.0534 C.ar    
   4 C4             2.4035     0.0084    -0.0412 C.ar    
   5 C5             2.3796     1.4130    -0.0341 C.ar    
   6 C6             1.1627     2.0947    -0.0392 C.ar    
   7 N7             3.6056    -0.6668    -0.0350 N.pl3   
   8 C8             4.7891    -0.0410    -0.0219 C.2     
   9 C9             4.8932     1.3356    -0.0135 C.2     
  10 C10            3.6619     2.1417    -0.0212 C.2     
  11 O11            3.7002     3.3596    -0.0146 O.2     
  12 C12            6.2115     1.9851     0.0018 C.2     
  13 O13            6.3001     3.3302     0.0099 O.3     
  14 O14            7.2220     1.3094     0.0073 O.2     
  15 C15            3.5871    -2.1316    -0.0427 C.3     
  16 C16            3.4445    -2.6248    -1.4595 C.ar    
  17 N17            2.2466    -2.7325    -2.0023 N.ar    
  18 N18            2.0728    -3.1467    -3.2046 N.ar    
  19 C19            3.0907    -3.4952    -3.9835 C.ar    
  20 C20            4.3970    -3.4132    -3.4913 C.ar    
  21 C21            4.5735    -2.9595    -2.1935 C.ar    
  22 F22            1.2003    -2.0429    -0.0599 F       
  23 C23            2.8436    -3.9684    -5.3649 C.ar    
  24 C24            1.5219    -4.0528    -5.8655 C.ar    
  25 C25            1.3169    -4.5088    -7.1902 C.ar    
  26 C26            2.4192    -4.8685    -7.9823 C.ar    
  27 C27            3.6812    -4.7787    -7.4758 C.ar    
  28 C28            3.9027    -4.3267    -6.1802 C.ar    
  29 N29            0.4766    -3.7111    -5.1097 N.ar    
  30 C30           -0.7503    -3.7874    -5.5673 C.ar    
  31 C31           -1.0232    -4.2277    -6.8602 C.ar    
  32 C32            0.0018    -4.5921    -7.6864 C.ar    
  33 H33           -0.9607     1.9082    -0.0600 H       
  34 H34           -0.9292    -0.5507    -0.0675 H       
  35 H35            1.1454     3.1746    -0.0342 H       
  36 H36            5.6925    -0.6328    -0.0174 H       
  37 H37            7.1887     3.7116     0.0199 H       
  38 H38            4.5175    -2.5090     0.3815 H       
  39 H39            2.7459    -2.4875     0.5522 H       
  40 H40            5.2418    -3.6909    -4.1042 H       
  41 H41            5.5607    -2.8763    -1.7634 H       
  42 H42            2.2668    -5.2168    -8.9932 H       
  43 H43            4.5226    -5.0580    -8.0926 H       
  44 H44            4.9124    -4.2642    -5.8020 H       
  45 H45           -1.5701    -3.5017    -4.9249 H       
  46 H46           -2.0438    -4.2807    -7.2092 H       
  47 H47           -0.1913    -4.9356    -8.6920 H       
@<TRIPOS>BOND
   1    1    2 ar
   2    1    6 ar
   3    1   33 1
   4    2    3 ar
   5    2   34 1
   6    3   22 1
   7    3    4 ar
   8    4    5 ar
   9    4    7 1
  10    5    6 ar
  11    5   10 1
  12    6   35 1
  13    7    8 1
  14    7   15 1
  15    8    9 2
  16    8   36 1
  17    9   10 1
  18    9   12 1
  19   10   11 2
  20   12   13 1
  21   12   14 2
  22   13   37 1
  23   15   16 1
  24   15   38 1
  25   15   39 1
  26   16   17 ar
  27   16   21 ar
  28   17   18 ar
  29   18   19 ar
  30   19   20 ar
  31   19   23 1
  32   20   21 ar
  33   20   40 1
  34   21   41 1
  35   23   24 ar
  36   23   28 ar
  37   24   25 ar
  38   24   29 ar
  39   25   26 ar
  40   25   32 ar
  41   26   27 ar
  42   26   42 1
  43   27   28 ar
  44   27   43 1
  45   28   44 1
  46   29   30 ar
  47   30   31 ar
  48   30   45 1
  49   31   32 ar
  50   31   46 1
  51   32   47 1

#	End of record

