#	Name: ASD01916713
#	Creating user name:	WinNT
#	Creation time:	15. 06. 2019 20:07

#	Modifying user name:	WinNT
#	Modification time:	15. 06. 2019 20:07

#	Program:	/corina/corina34_cracker 3.40 0067  02.08.2006

@<TRIPOS>MOLECULE
ASD01916713
  31   33    0    0    0
SMALL
NO_CHARGES


@<TRIPOS>ATOM
   1 O1            -0.0161     1.3380     0.0094 O.3     
   2 C2             0.0021    -0.0041     0.0020 C.2     
   3 N3             1.2265    -0.4380    -0.0120 N.2     
   4 C4             2.0702     0.6295    -0.0143 C.ar    
   5 C5             1.2624     1.7766    -0.0005 C.ar    
   6 C6             1.8481     3.0339     0.0003 C.ar    
   7 C7             3.2231     3.1521    -0.0126 C.ar    
   8 C8             4.0265     2.0195    -0.0268 C.ar    
   9 C9             3.4596     0.7622    -0.0269 C.ar    
  10 C10           -1.2227    -0.8820     0.0095 C.3     
  11 C11           -1.6229    -1.1869     1.4544 C.3     
  12 C12           -2.8193    -2.0445     1.4616 C.1     
  13 C13           -3.7734    -2.7285     1.4674 C.1     
  14 C14           -4.9373    -3.5627     1.4745 C.ar    
  15 C15           -5.4880    -3.9726     2.6893 C.ar    
  16 C16           -6.6125    -4.7785     2.6794 C.ar    
  17 C17           -7.1514    -5.1495     1.4551 C.ar    
  18 C18           -6.5548    -4.7073     0.2888 C.ar    
  19 N19           -5.4874    -3.9360     0.3249 N.ar    
  20 F20            5.3711     2.1500    -0.0402 F       
  21 Br21           0.7644     4.5835     0.0183 Br      
  22 H22            3.6773     4.1320    -0.0120 H       
  23 H23            4.0881    -0.1160    -0.0372 H       
  24 H24           -2.0416    -0.3676    -0.4935 H       
  25 H25           -1.0047    -1.8143    -0.5116 H       
  26 H26           -0.8041    -1.7013     1.9574 H       
  27 H27           -1.8410    -0.2547     1.9754 H       
  28 H28           -5.0425    -3.6654     3.6240 H       
  29 H29           -7.0609    -5.1118     3.6037 H       
  30 H30           -8.0286    -5.7782     1.4140 H       
  31 H31           -6.9720    -4.9949    -0.6649 H       
@<TRIPOS>BOND
   1    1    2 1
   2    1    5 1
   3    2    3 2
   4    2   10 1
   5    3    4 1
   6    4    5 ar
   7    4    9 ar
   8    5    6 ar
   9    6    7 ar
  10    6   21 1
  11    7    8 ar
  12    7   22 1
  13    8    9 ar
  14    8   20 1
  15    9   23 1
  16   10   11 1
  17   10   24 1
  18   10   25 1
  19   11   12 1
  20   11   26 1
  21   11   27 1
  22   12   13 3
  23   13   14 1
  24   14   15 ar
  25   14   19 ar
  26   15   16 ar
  27   15   28 1
  28   16   17 ar
  29   16   29 1
  30   17   18 ar
  31   17   30 1
  32   18   19 ar
  33   18   31 1

#	End of record

