#	Name: ASD01911857
#	Creating user name:	WinNT
#	Creation time:	15. 06. 2019 19:58

#	Modifying user name:	WinNT
#	Modification time:	15. 06. 2019 19:58

#	Program:	/corina/corina34_cracker 3.40 0067  02.08.2006

@<TRIPOS>MOLECULE
ASD01911857
  37   39    0    0    0
SMALL
NO_CHARGES


@<TRIPOS>ATOM
   1 C1            -1.0576    -0.4836    -2.0447 C.ar    
   2 C2            -1.0626     0.0680    -0.7671 C.ar    
   3 C3            -1.0155     1.4476    -0.6289 C.ar    
   4 N4            -0.9667     2.2287    -1.6898 N.ar    
   5 C5            -0.9606     1.7382    -2.9136 C.ar    
   6 C6            -1.0056     0.3736    -3.1317 C.ar    
   7 O7            -1.1132    -0.7332     0.3294 O.3     
   8 C8            -1.1589    -2.0774     0.1357 C.ar    
   9 C9            -0.0046    -2.7696    -0.2030 C.ar    
  10 C10           -0.0500    -4.1386    -0.4005 C.ar    
  11 C11           -1.2461    -4.8203    -0.2603 C.ar    
  12 C12           -2.4030    -4.1311     0.0789 C.ar    
  13 C13           -2.3574    -2.7585     0.2819 C.ar    
  14 N14           -3.6118    -4.8197     0.2207 N.am    
  15 C15           -3.6156    -6.0873     0.6785 C.2     
  16 C16           -4.8804    -6.8510     0.7298 C.ar    
  17 O17           -2.5789    -6.6027     1.0494 O.2     
  18 C18           -6.0723    -6.2603     0.3042 C.ar    
  19 C19           -7.2547    -6.9722     0.3509 C.ar    
  20 C20           -7.2679    -8.2710     0.8183 C.ar    
  21 C21           -6.0826    -8.8744     1.2474 C.ar    
  22 C22           -4.8850    -8.1636     1.1975 C.ar    
  23 C23           -6.0978   -10.2217     1.7326 C.1     
  24 F24            1.0747    -4.8102    -0.7310 F       
  25 N25           -6.1099   -11.2904     2.1175 N.1     
  26 H26           -1.0890    -1.5540    -2.1853 H       
  27 H27           -1.0193     1.8862     0.3580 H       
  28 H28           -0.9203     2.4114    -3.7572 H       
  29 H29           -0.9998    -0.0194    -4.1376 H       
  30 H30            0.9298    -2.2393    -0.3129 H       
  31 H31           -1.2800    -5.8887    -0.4151 H       
  32 H32           -3.2561    -2.2208     0.5458 H       
  33 H33           -4.4476    -4.3851    -0.0105 H       
  34 H34           -6.0693    -5.2442    -0.0621 H       
  35 H35           -8.1735    -6.5105     0.0205 H       
  36 H36           -8.1962    -8.8219     0.8529 H       
  37 H37           -3.9661    -8.6251     1.5275 H       
@<TRIPOS>BOND
   1    1    2 ar
   2    1    6 ar
   3    1   26 1
   4    2    3 ar
   5    2    7 1
   6    3    4 ar
   7    3   27 1
   8    4    5 ar
   9    5    6 ar
  10    5   28 1
  11    6   29 1
  12    7    8 1
  13    8    9 ar
  14    8   13 ar
  15    9   10 ar
  16    9   30 1
  17   10   11 ar
  18   10   24 1
  19   11   12 ar
  20   11   31 1
  21   12   13 ar
  22   12   14 1
  23   13   32 1
  24   14   15 am
  25   14   33 1
  26   15   16 1
  27   15   17 2
  28   16   18 ar
  29   16   22 ar
  30   18   19 ar
  31   18   34 1
  32   19   20 ar
  33   19   35 1
  34   20   21 ar
  35   20   36 1
  36   21   22 ar
  37   21   23 1
  38   22   37 1
  39   23   25 3

#	End of record

