#	Name: ASD01820227
#	Creating user name:	WinNT
#	Creation time:	15. 06. 2019 19:36

#	Modifying user name:	WinNT
#	Modification time:	15. 06. 2019 19:36

#	Program:	/corina/corina34_cracker 3.40 0067  02.08.2006

@<TRIPOS>MOLECULE
ASD01820227
 112  126    0    0    0
SMALL
NO_CHARGES


@<TRIPOS>ATOM
   1 C1            -0.1646     1.6046    -0.4041 C.ar    
   2 C2            -0.2012     0.2284    -0.5034 C.ar    
   3 C3             0.9479    -0.5440    -0.5350 C.ar    
   4 C4             2.1703     0.1217    -0.4493 C.ar    
   5 C5             2.2072     1.5343    -0.3412 C.ar    
   6 C6             1.0468     2.2810    -0.3266 C.ar    
   7 N7             3.4537    -0.3736    -0.4336 N.3     
   8 C8             4.3858     0.6848    -0.8037 C.3     
   9 C9             3.6341     1.9156    -0.2323 C.3     
  10 C10            4.3858     0.7141    -2.3347 C.3     
  11 C11            4.9164     2.0564    -2.8300 C.3     
  12 C12            4.0173     3.1953    -2.3729 C.3     
  13 C13            4.0561     3.2249    -0.8646 C.3     
  14 C14            3.7314    -1.7343    -0.3269 C.3     
  15 C15            5.1309    -2.3240    -0.4469 C.3     
  16 C16            6.2223    -1.3025    -0.7488 C.3     
  17 N17            6.2681    -1.0107    -2.1783 N.3     
  18 C18            5.2555    -0.3837    -2.9305 C.3     
  19 C19            5.4151    -2.9707     0.9161 C.3     
  20 C20            6.7243    -3.7425     0.8898 C.3     
  21 C21            7.8329    -2.7401     0.6657 C.3     
  22 C22            7.6399    -1.9240    -0.5930 C.3     
  23 C23            7.8478    -2.6386    -1.8779 C.ar    
  24 C24            6.9778    -2.0245    -2.8083 C.ar    
  25 C25            6.2949     2.2023    -2.2249 C.2     
  26 C26            7.2448     1.6273    -2.9132 C.2     
  27 C27            6.5069     2.8509    -0.9076 C.3     
  28 N28            5.3735     3.5323    -0.2990 N.4     
  29 C29            6.9574     0.8577    -4.1408 C.3     
  30 C30            5.4970    -1.8395     1.9167 C.2     
  31 C31            4.3560    -1.4506     2.4257 C.2     
  32 C32            6.7751    -1.1572     2.2385 C.3     
  33 C33            3.0728    -2.0388     2.0034 C.3     
  34 N34            8.0009    -1.7610     1.7443 N.4     
  35 C35            8.6754    -3.6772    -2.2426 C.ar    
  36 C36            8.6320    -4.1052    -3.5609 C.ar    
  37 C37            7.7845    -3.5102    -4.4707 C.ar    
  38 C38            6.9402    -2.4656    -4.1259 C.ar    
  39 H39            3.3648     3.9976    -0.5236 H       
  40 H40            4.9823     2.0593    -3.9161 H       
  41 H41            8.7713    -3.2894     0.5712 H       
  42 H42            4.6010    -3.6449     1.1759 H       
  43 C43            8.7737    -0.6394     1.1301 C.3     
  44 C44            8.6639    -0.7827    -0.4044 C.3     
  45 H45            6.1939    -0.4642    -0.0542 H       
  46 H46            5.3809     0.6943    -0.3929 H       
  47 C47            4.0694     2.1275     1.2402 C.3     
  48 C48            5.3152     3.0337     1.1111 C.3     
  49 O49            2.9450    -2.4200     0.6573 O.3     
  50 H50            5.1381    -3.1085    -1.2111 H       
  51 H51            3.3533     0.5912    -2.6886 H       
  52 O52            5.7920     0.0723    -4.1947 O.3     
  53 C53            8.7641    -2.3450     2.8518 C.3     
  54 C54            5.5968     4.9824    -0.3022 C.3     
  55 C55            9.0961    -1.2703     3.8547 C.ar    
  56 C56            4.4608     5.6671     0.4131 C.ar    
  57 C57            4.5363     5.8909     1.7752 C.ar    
  58 C58            3.4943     6.5189     2.4313 C.ar    
  59 C59            2.3768     6.9237     1.7253 C.ar    
  60 C60            2.3016     6.7007     0.3632 C.ar    
  61 C61            3.3456     6.0766    -0.2937 C.ar    
  62 C62            8.2279    -1.0058     4.8974 C.ar    
  63 C63            8.5325    -0.0200     5.8173 C.ar    
  64 C64            9.7055     0.7011     5.6948 C.ar    
  65 C65           10.5741     0.4360     4.6527 C.ar    
  66 C66           10.2716    -0.5527     3.7353 C.ar    
  67 H67           -1.0901     2.1629    -0.3753 H       
  68 H68           -1.1610    -0.2629    -0.5534 H       
  69 H69            0.8957    -1.6196    -0.6166 H       
  70 H70            1.0832     3.3584    -0.2508 H       
  71 H71            4.3771     4.1399    -2.7770 H       
  72 H72            2.9946     3.0177    -2.7106 H       
  73 H73            3.2482    -2.1215    -1.2818 H       
  74 H74            4.5624    -1.2004    -3.2054 H       
  75 H75            6.8728    -4.2632     1.8342 H       
  76 H76            6.7126    -4.4641     0.0709 H       
  77 H77            8.2645     1.7158    -2.5847 H       
  78 H78            6.8660     2.0901    -0.2190 H       
  79 H79            7.3062     3.5854    -1.0272 H       
  80 H80            6.9124     1.5703    -4.9656 H       
  81 H81            7.8094     0.2058    -4.3282 H       
  82 H82            4.3503    -0.6816     3.1774 H       
  83 H83            6.7103    -0.1412     1.8585 H       
  84 H84            6.8502    -1.0971     3.3251 H       
  85 H85            2.9003    -2.9234     2.6191 H       
  86 H86            2.2849    -1.3253     2.2328 H       
  87 H87            9.3372    -4.1382    -1.5215 H       
  88 H88            9.2775    -4.9144    -3.8796 H       
  89 H89            7.7827    -3.8654    -5.4911 H       
  90 H90            6.2834    -2.0182    -4.8571 H       
  91 H91            8.3668     0.3203     1.4452 H       
  92 H92            9.8194    -0.7055     1.4339 H       
  93 H93            9.6291    -1.0591    -0.8345 H       
  94 H94            8.2972     0.1411    -0.8541 H       
  95 H95            3.2843     2.6314     1.8060 H       
  96 H96            4.3303     1.1769     1.7060 H       
  97 H97            6.2133     2.4688     1.3557 H       
  98 H98            5.2247     3.8807     1.7942 H       
  99 H99            8.1690    -3.1205     3.3340 H       
 100 H100           9.6863    -2.7808     2.4676 H       
 101 H101           6.5343     5.2068     0.2065 H       
 102 H102           5.6467     5.3400    -1.3306 H       
 103 H103           5.4094     5.5747     2.3267 H       
 104 H104           3.5530     6.6931     3.4955 H       
 105 H105           1.5624     7.4137     2.2381 H       
 106 H106           1.4284     7.0166    -0.1883 H       
 107 H107           3.2868     5.9024    -1.3580 H       
 108 H108           7.3115    -1.5692     4.9931 H       
 109 H109           7.8538     0.1871     6.6315 H       
 110 H110           9.9431     1.4718     6.4132 H       
 111 H111          11.4904     0.9996     4.5568 H       
 112 H112          10.9503    -0.7598     2.9211 H       
@<TRIPOS>BOND
   1    1    2 ar
   2    1    6 ar
   3    1   67 1
   4    2    3 ar
   5    2   68 1
   6    3    4 ar
   7    3   69 1
   8    4    5 ar
   9    4    7 1
  10    5    6 ar
  11    5    9 1
  12    6   70 1
  13    7    8 1
  14    7   14 1
  15    8    9 1
  16    8   46 1
  17    8   10 1
  18    9   13 1
  19    9   47 1
  20   10   51 1
  21   10   11 1
  22   10   18 1
  23   11   12 1
  24   11   25 1
  25   11   40 1
  26   12   13 1
  27   12   71 1
  28   12   72 1
  29   13   28 1
  30   13   39 1
  31   14   15 1
  32   14   49 1
  33   14   73 1
  34   15   16 1
  35   15   50 1
  36   15   19 1
  37   16   17 1
  38   16   22 1
  39   16   45 1
  40   17   18 1
  41   17   24 1
  42   18   52 1
  43   18   74 1
  44   19   20 1
  45   19   30 1
  46   19   42 1
  47   20   21 1
  48   20   75 1
  49   20   76 1
  50   21   22 1
  51   21   41 1
  52   21   34 1
  53   22   23 1
  54   22   44 1
  55   23   24 ar
  56   23   35 ar
  57   24   38 ar
  58   25   26 2
  59   25   27 1
  60   26   29 1
  61   26   77 1
  62   27   28 1
  63   27   78 1
  64   27   79 1
  65   28   48 1
  66   28   54 1
  67   29   52 1
  68   29   80 1
  69   29   81 1
  70   30   31 2
  71   30   32 1
  72   31   33 1
  73   31   82 1
  74   32   34 1
  75   32   83 1
  76   32   84 1
  77   33   49 1
  78   33   85 1
  79   33   86 1
  80   34   43 1
  81   34   53 1
  82   35   36 ar
  83   35   87 1
  84   36   37 ar
  85   36   88 1
  86   37   38 ar
  87   37   89 1
  88   38   90 1
  89   43   44 1
  90   43   91 1
  91   43   92 1
  92   44   93 1
  93   44   94 1
  94   47   48 1
  95   47   95 1
  96   47   96 1
  97   48   97 1
  98   48   98 1
  99   53   55 1
 100   53   99 1
 101   53  100 1
 102   54   56 1
 103   54  101 1
 104   54  102 1
 105   55   62 ar
 106   55   66 ar
 107   56   57 ar
 108   56   61 ar
 109   57   58 ar
 110   57  103 1
 111   58   59 ar
 112   58  104 1
 113   59   60 ar
 114   59  105 1
 115   60   61 ar
 116   60  106 1
 117   61  107 1
 118   62   63 ar
 119   62  108 1
 120   63   64 ar
 121   63  109 1
 122   64   65 ar
 123   64  110 1
 124   65   66 ar
 125   65  111 1
 126   66  112 1

#	End of record

