#	Name: ASD02500861
#	Creating user name:	WinNT
#	Creation time:	15. 06. 2019 20:23

#	Modifying user name:	WinNT
#	Modification time:	15. 06. 2019 20:23

#	Program:	/corina/corina34_cracker 3.40 0067  02.08.2006

@<TRIPOS>MOLECULE
ASD02500861
  44   46    0    0    0
SMALL
NO_CHARGES


@<TRIPOS>ATOM
   1 C1             0.3415     1.4846    -0.2024 C.ar    
   2 C2             0.2612     0.1264     0.0514 C.ar    
   3 C3             1.4815     2.0161    -0.7911 C.ar    
   4 C4             2.5419     1.1937    -1.1272 C.ar    
   5 C5             2.4753    -0.1611    -0.8806 C.ar    
   6 C6             1.3314    -0.7074    -0.2872 C.ar    
   7 C7             1.2552    -2.1514    -0.0216 C.2     
   8 C8             2.3381    -2.8102     0.4604 C.2     
   9 C9             3.6067    -2.2395     0.9341 C.2     
  10 N10            4.4942    -3.1262     1.3531 N.am    
  11 C11            4.1915    -4.4289     1.3196 C.2     
  12 S12            2.5471    -4.5600     0.6718 S.3     
  13 S13            5.1984    -5.7223     1.8136 S.2     
  14 O14            3.8243    -1.0423     0.9401 O.2     
  15 C15            5.7998    -2.6849     1.8501 C.3     
  16 C16            5.7166    -2.4436     3.3353 C.2     
  17 O17            6.8010    -2.0306     4.0099 O.3     
  18 O18            4.6737    -2.6220     3.9188 O.2     
  19 O19           -0.6985     2.2980     0.1198 O.3     
  20 C20            6.6476    -1.8184     5.4381 C.3     
  21 C21           -0.5478     3.6892    -0.1699 C.3     
  22 C22           -1.7914     4.4280     0.2531 C.ar    
  23 C23           -1.8886     4.9416     1.5328 C.ar    
  24 C24           -3.0293     5.6192     1.9208 C.ar    
  25 C25           -4.0726     5.7835     1.0289 C.ar    
  26 C26           -3.9750     5.2706    -0.2510 C.ar    
  27 C27           -2.8326     4.5968    -0.6404 C.ar    
  28 H28           -0.6248    -0.2878     0.5096 H       
  29 H29            1.5402     3.0764    -0.9878 H       
  30 H30            3.4251     1.6145    -1.5848 H       
  31 H31            3.3048    -0.8002    -1.1450 H       
  32 H32            0.3369    -2.6874    -0.2103 H       
  33 H33            6.5445    -3.4548     1.6482 H       
  34 H34            6.0866    -1.7612     1.3474 H       
  35 H35            6.3447    -2.7513     5.9136 H       
  36 H36            7.5964    -1.4869     5.8602 H       
  37 H37            5.8867    -1.0577     5.6128 H       
  38 H38            0.3111     4.0827     0.3738 H       
  39 H39           -0.3924     3.8227    -1.2404 H       
  40 H40           -1.0735     4.8133     2.2296 H       
  41 H41           -3.1055     6.0199     2.9208 H       
  42 H42           -4.9641     6.3123     1.3323 H       
  43 H43           -4.7903     5.3987    -0.9477 H       
  44 H44           -2.7563     4.1961    -1.6404 H       
@<TRIPOS>BOND
   1    1    2 ar
   2    1    3 ar
   3    1   19 1
   4    2    6 ar
   5    2   28 1
   6    3    4 ar
   7    3   29 1
   8    4    5 ar
   9    4   30 1
  10    5    6 ar
  11    5   31 1
  12    6    7 1
  13    7    8 2
  14    7   32 1
  15    8    9 1
  16    8   12 1
  17    9   10 am
  18    9   14 2
  19   10   11 am
  20   10   15 1
  21   11   12 1
  22   11   13 2
  23   15   16 1
  24   15   33 1
  25   15   34 1
  26   16   17 1
  27   16   18 2
  28   17   20 1
  29   19   21 1
  30   20   35 1
  31   20   36 1
  32   20   37 1
  33   21   22 1
  34   21   38 1
  35   21   39 1
  36   22   23 ar
  37   22   27 ar
  38   23   24 ar
  39   23   40 1
  40   24   25 ar
  41   24   41 1
  42   25   26 ar
  43   25   42 1
  44   26   27 ar
  45   26   43 1
  46   27   44 1

#	End of record

