#	Name: ASD02500465
#	Creating user name:	WinNT
#	Creation time:	15. 06. 2019 20:22

#	Modifying user name:	WinNT
#	Modification time:	15. 06. 2019 20:22

#	Program:	/corina/corina34_cracker 3.40 0067  02.08.2006

@<TRIPOS>MOLECULE
ASD02500465
  68   73    0    0    0
SMALL
NO_CHARGES


@<TRIPOS>ATOM
   1 N1             0.9995     3.8076    -0.1844 N.ar    
   2 C2             2.1425     3.5865     0.4179 C.ar    
   3 C3             3.2581     3.1201    -0.2746 C.ar    
   4 C4             3.1764     2.8811    -1.6168 C.ar    
   5 C5             1.9471     3.1193    -2.2602 C.ar    
   6 C6             1.7875     2.8971    -3.6372 C.ar    
   7 C7             0.5822     3.1398    -4.2227 C.ar    
   8 C8            -0.4955     3.6066    -3.4733 C.ar    
   9 C9            -0.3759     3.8328    -2.1365 C.ar    
  10 C10            0.8523     3.5940    -1.4959 C.ar    
  11 S11           -1.7550     4.4238    -1.2127 S.o2    
  12 O12           -1.2819     5.5205    -0.4427 O.2     
  13 O13           -2.8369     4.5263    -2.1282 O.2     
  14 N14           -2.1666     3.2375    -0.1332 N.am    
  15 C15           -2.5679     1.9880    -0.5928 C.ar    
  16 C16           -2.0328     0.8346    -0.0259 C.ar    
  17 C17           -2.4280    -0.4034    -0.4785 C.ar    
  18 C18           -3.3677    -0.5020    -1.5088 C.ar    
  19 C19           -3.9031     0.6581    -2.0760 C.ar    
  20 C20           -3.5082     1.8931    -1.6151 C.ar    
  21 C21           -3.7931    -1.8276    -1.9968 C.2     
  22 O22           -4.9599    -2.0274    -2.2750 O.2     
  23 N23           -2.8886    -2.8173    -2.1342 N.am    
  24 C24           -3.2748    -4.1202    -2.6966 C.3     
  25 C25           -2.2961    -4.4743    -3.8213 C.3     
  26 N26           -0.9208    -4.4015    -3.3102 N.3     
  27 C27           -0.5807    -3.0360    -2.8885 C.3     
  28 C28           -1.4878    -2.6210    -1.7312 C.3     
  29 C29            0.0379    -4.8991    -4.3059 C.3     
  30 C30            1.4629    -4.7017    -3.7849 C.3     
  31 C31            1.7928    -5.2623    -2.4001 C.3     
  32 C32            2.3454    -5.9445    -3.6532 C.3     
  33 C33            2.1308    -3.4134    -4.1913 C.ar    
  34 C34            1.8601    -2.8539    -5.4260 C.ar    
  35 C35            2.4729    -1.6722    -5.7988 C.ar    
  36 C36            3.3560    -1.0496    -4.9365 C.ar    
  37 C37            3.6260    -1.6086    -3.7014 C.ar    
  38 C38            3.0099    -2.7880    -3.3269 C.ar    
  39 H39            2.2218     3.7711     1.4790 H       
  40 H40            4.1866     2.9481     0.2495 H       
  41 H41            4.0312     2.5199    -2.1692 H       
  42 H42            2.6158     2.5360    -4.2287 H       
  43 H43            0.4603     2.9686    -5.2820 H       
  44 H44           -1.4410     3.7922    -3.9610 H       
  45 H45           -2.1277     3.4141     0.8198 H       
  46 H46           -1.3066     0.9114     0.7698 H       
  47 H47           -2.0123    -1.2979    -0.0386 H       
  48 H48           -4.6290     0.5851    -2.8723 H       
  49 H49           -3.9250     2.7896    -2.0496 H       
  50 H50           -3.2302    -4.8826    -1.9189 H       
  51 H51           -4.2868    -4.0607    -3.0972 H       
  52 H52           -2.4994    -5.4849    -4.1756 H       
  53 H53           -2.4164    -3.7690    -4.6436 H       
  54 H54            0.4601    -3.0035    -2.5663 H       
  55 H55           -0.7249    -2.3508    -3.7238 H       
  56 H56           -1.3188    -1.5706    -1.4938 H       
  57 H57           -1.2680    -3.2364    -0.8588 H       
  58 H58           -0.1404    -5.9596    -4.4835 H       
  59 H59           -0.0877    -4.3484    -5.2381 H       
  60 H60            2.4932    -4.6995    -1.7831 H       
  61 H61            0.9946    -5.7718    -1.8602 H       
  62 H62            1.9108    -6.9028    -3.9376 H       
  63 H63            3.4094    -5.8306    -3.8605 H       
  64 H64            1.1702    -3.3404    -6.0997 H       
  65 H65            2.2619    -1.2355    -6.7638 H       
  66 H66            3.8352    -0.1267    -5.2280 H       
  67 H67            4.3162    -1.1223    -3.0279 H       
  68 H68            3.2180    -3.2228    -2.3604 H       
@<TRIPOS>BOND
   1    1    2 ar
   2    1   10 ar
   3    2    3 ar
   4    2   39 1
   5    3    4 ar
   6    3   40 1
   7    4    5 ar
   8    4   41 1
   9    5    6 ar
  10    5   10 ar
  11    6    7 ar
  12    6   42 1
  13    7    8 ar
  14    7   43 1
  15    8    9 ar
  16    8   44 1
  17    9   10 ar
  18    9   11 1
  19   11   12 2
  20   11   13 2
  21   11   14 am
  22   14   15 1
  23   14   45 1
  24   15   16 ar
  25   15   20 ar
  26   16   17 ar
  27   16   46 1
  28   17   18 ar
  29   17   47 1
  30   18   19 ar
  31   18   21 1
  32   19   20 ar
  33   19   48 1
  34   20   49 1
  35   21   22 2
  36   21   23 am
  37   23   24 1
  38   23   28 1
  39   24   25 1
  40   24   50 1
  41   24   51 1
  42   25   26 1
  43   25   52 1
  44   25   53 1
  45   26   27 1
  46   26   29 1
  47   27   28 1
  48   27   54 1
  49   27   55 1
  50   28   56 1
  51   28   57 1
  52   29   30 1
  53   29   58 1
  54   29   59 1
  55   30   31 1
  56   30   32 1
  57   30   33 1
  58   31   32 1
  59   31   60 1
  60   31   61 1
  61   32   62 1
  62   32   63 1
  63   33   34 ar
  64   33   38 ar
  65   34   35 ar
  66   34   64 1
  67   35   36 ar
  68   35   65 1
  69   36   37 ar
  70   36   66 1
  71   37   38 ar
  72   37   67 1
  73   38   68 1

#	End of record

