#	Name: ASD08070253
#	Creating user name:	WinNT
#	Creation time:	15. 06. 2019 21:14

#	Modifying user name:	WinNT
#	Modification time:	15. 06. 2019 21:14

#	Program:	/corina/corina34_cracker 3.40 0067  02.08.2006

@<TRIPOS>MOLECULE
ASD08070253
  38   40    0    0    0
SMALL
NO_CHARGES


@<TRIPOS>ATOM
   1 N1            -0.0451     1.3246    -0.2603 N.am    
   2 C2            -0.0048    -0.0225    -0.2608 C.2     
   3 O3            -1.0307    -0.6614    -0.3932 O.2     
   4 N4             1.1728    -0.6615    -0.1144 N.am    
   5 C5             1.2043    -2.0572    -0.0172 C.ar    
   6 C6             2.3908    -2.7435    -0.2398 C.ar    
   7 C7             2.4184    -4.1219    -0.1430 C.ar    
   8 C8             1.1553     2.1239     0.0076 C.3     
   9 C9             0.0504    -2.7580     0.3076 C.ar    
  10 C10            0.0839    -4.1357     0.4030 C.ar    
  11 C11            1.2648    -4.8175     0.1754 C.ar    
  12 C12            0.8168     3.2459     0.9568 C.ar    
  13 C13           -0.4812     3.5700     1.2813 C.ar    
  14 C14           -1.6707     2.8249     0.7353 C.3     
  15 C15           -1.2946     2.0536    -0.5348 C.3     
  16 C16            1.8675     3.9652     1.5103 C.ar    
  17 C17            1.6213     5.0082     2.3790 C.ar    
  18 C18            0.3180     5.3399     2.7000 C.ar    
  19 C19           -0.7263     4.6240     2.1534 C.ar    
  20 C20            3.6466    -1.9863    -0.5869 C.3     
  21 Cl21           3.9006    -4.9816    -0.4215 Cl      
  22 H22            1.9986    -0.1540    -0.0765 H       
  23 H23            1.9212     1.4897     0.4541 H       
  24 H24            1.5299     2.5404    -0.9274 H       
  25 H25           -0.8726    -2.2263     0.4860 H       
  26 H26           -0.8135    -4.6808     0.6560 H       
  27 H27            1.2882    -5.8947     0.2502 H       
  28 H28           -2.0317     2.1246     1.4886 H       
  29 H29           -2.4622     3.5364     0.4999 H       
  30 H30           -1.1470     2.7508    -1.3595 H       
  31 H31           -2.0860     1.3472    -0.7853 H       
  32 H32            2.8854     3.7064     1.2586 H       
  33 H33            2.4432     5.5631     2.8068 H       
  34 H34            0.1183     6.1573     3.3770 H       
  35 H35           -1.7437     4.8852     2.4048 H       
  36 H36            4.1802    -1.7287     0.3280 H       
  37 H37            4.2835    -2.6080    -1.2162 H       
  38 H38            3.3845    -1.0745    -1.1237 H       
@<TRIPOS>BOND
   1    1    2 am
   2    1    8 1
   3    1   15 1
   4    2    3 2
   5    2    4 am
   6    4    5 1
   7    4   22 1
   8    5    6 ar
   9    5    9 ar
  10    6    7 ar
  11    6   20 1
  12    7   21 1
  13    7   11 ar
  14    8   12 1
  15    8   23 1
  16    8   24 1
  17    9   10 ar
  18    9   25 1
  19   10   11 ar
  20   10   26 1
  21   11   27 1
  22   12   13 ar
  23   12   16 ar
  24   13   14 1
  25   13   19 ar
  26   14   15 1
  27   14   28 1
  28   14   29 1
  29   15   30 1
  30   15   31 1
  31   16   17 ar
  32   16   32 1
  33   17   18 ar
  34   17   33 1
  35   18   19 ar
  36   18   34 1
  37   19   35 1
  38   20   36 1
  39   20   37 1
  40   20   38 1

#	End of record

