#	Name: ASD04910458
#	Creating user name:	WinNT
#	Creation time:	15. 06. 2019 20:55

#	Modifying user name:	WinNT
#	Modification time:	15. 06. 2019 20:55

#	Program:	/corina/corina34_cracker 3.40 0067  02.08.2006

@<TRIPOS>MOLECULE
ASD04910458
  61   64    0    0    0
SMALL
NO_CHARGES


@<TRIPOS>ATOM
   1 C1            -0.2699     1.4346     0.2407 C.2     
   2 C2            -0.2094    -0.0708     0.2046 C.3     
   3 C3             1.2515    -0.5212     0.1428 C.3     
   4 O4             0.7508     2.0809     0.2193 O.2     
   5 O5            -1.4578     2.0575     0.2912 O.3     
   6 C6             2.5028    -2.6100     0.0514 C.2     
   7 C7             2.5621    -4.0868     0.0160 C.ar    
   8 C8             3.7955    -4.7376    -0.0423 C.ar    
   9 C9             3.8439    -6.1159    -0.0746 C.ar    
  10 C10            2.6733    -6.8530    -0.0499 C.ar    
  11 C11            1.4474    -6.2141     0.0078 C.ar    
  12 C12            1.3852    -4.8365     0.0465 C.ar    
  13 O13            3.5296    -1.9598     0.0298 O.2     
  14 N14            1.3103    -1.9846     0.1077 N.am    
  15 C15            2.7337    -8.3583    -0.0865 C.3     
  16 C16            2.5545    -8.9105     1.3291 C.3     
  17 C17            2.7398   -10.4292     1.3114 C.3     
  18 C18            2.5606   -10.9813     2.7270 C.3     
  19 O19            1.6915    -8.8566    -0.9276 O.3     
  20 C20            1.9543    -9.9901    -1.6302 C.ar    
  21 C21            3.2169   -10.5631    -1.5752 C.ar    
  22 C22            3.4846   -11.7140    -2.2888 C.ar    
  23 C23            2.4898   -12.2986    -3.0617 C.ar    
  24 C24            1.2262   -11.7249    -3.1160 C.ar    
  25 C25            0.9583   -10.5769    -2.3977 C.ar    
  26 N26            3.9924   -14.1316    -3.8083 N.2     
  27 N27            2.7610   -13.4668    -3.7868 N.pl3   
  28 C28            1.8779   -14.1146    -4.5637 C.2     
  29 C29            2.5166   -15.2141    -5.1066 C.ar    
  30 C30            2.1343   -16.2555    -5.9790 C.ar    
  31 C31            3.0396   -17.2077    -6.3214 C.ar    
  32 C32            4.3482   -17.1868    -5.8312 C.ar    
  33 C33            4.7809   -16.2149    -4.9894 C.ar    
  34 C34            3.8945   -15.1920    -4.5909 C.ar    
  35 Cl35           2.5591   -18.4843    -7.3952 Cl      
  36 H36           -0.6765    -0.4748     1.1027 H       
  37 H37           -0.7394    -0.4347    -0.6757 H       
  38 H38            1.7186    -0.1172    -0.7553 H       
  39 H39            1.7814    -0.1573     1.0231 H       
  40 H40           -1.4460     3.0242     0.3128 H       
  41 H41            4.7100    -4.1633    -0.0624 H       
  42 H42            4.7976    -6.6207    -0.1197 H       
  43 H43            0.5373    -6.7953     0.0269 H       
  44 H44            0.4278    -4.3391     0.0961 H       
  45 H45            0.4909    -2.5034     0.1249 H       
  46 H46            3.7001    -8.6737    -0.4799 H       
  47 H47            3.2955    -8.4618     1.9906 H       
  48 H48            1.5538    -8.6708     1.6886 H       
  49 H49            1.9988   -10.8779     0.6498 H       
  50 H50            3.7405   -10.6689     0.9519 H       
  51 H51            3.3016   -10.5326     3.3885 H       
  52 H52            1.5599   -10.7416     3.0865 H       
  53 H53            2.6926   -12.0632     2.7144 H       
  54 H54            3.9904   -10.1083    -0.9741 H       
  55 H55            4.4675   -12.1595    -2.2465 H       
  56 H56            0.4523   -12.1789    -3.7171 H       
  57 H57           -0.0256   -10.1331    -2.4364 H       
  58 H58            0.8506   -13.8279    -4.7338 H       
  59 H59            1.1288   -16.2949    -6.3712 H       
  60 H60            5.0336   -17.9659    -6.1304 H       
  61 H61            5.7981   -16.2239    -4.6266 H       
@<TRIPOS>BOND
   1    1    2 1
   2    1    4 2
   3    1    5 1
   4    2    3 1
   5    2   36 1
   6    2   37 1
   7    3   14 1
   8    3   38 1
   9    3   39 1
  10    5   40 1
  11    6    7 1
  12    6   13 2
  13    6   14 am
  14    7    8 ar
  15    7   12 ar
  16    8    9 ar
  17    8   41 1
  18    9   10 ar
  19    9   42 1
  20   10   11 ar
  21   10   15 1
  22   11   12 ar
  23   11   43 1
  24   12   44 1
  25   14   45 1
  26   15   16 1
  27   15   19 1
  28   15   46 1
  29   16   17 1
  30   16   47 1
  31   16   48 1
  32   17   18 1
  33   17   49 1
  34   17   50 1
  35   18   51 1
  36   18   52 1
  37   18   53 1
  38   19   20 1
  39   20   21 ar
  40   20   25 ar
  41   21   22 ar
  42   21   54 1
  43   22   23 ar
  44   22   55 1
  45   23   24 ar
  46   23   27 1
  47   24   25 ar
  48   24   56 1
  49   25   57 1
  50   26   27 1
  51   26   34 2
  52   27   28 1
  53   28   29 2
  54   28   58 1
  55   29   30 ar
  56   29   34 ar
  57   30   31 ar
  58   30   59 1
  59   31   32 ar
  60   31   35 1
  61   32   33 ar
  62   32   60 1
  63   33   34 ar
  64   33   61 1

#	End of record

