#	Name: ASD01150361
#	Creating user name:	WinNT
#	Creation time:	15. 06. 2019 19:04

#	Modifying user name:	WinNT
#	Modification time:	15. 06. 2019 19:04

#	Program:	/corina/corina34_cracker 3.40 0067  02.08.2006

@<TRIPOS>MOLECULE
ASD01150361
  41   43    0    0    0
SMALL
NO_CHARGES


@<TRIPOS>ATOM
   1 C1             0.3805     1.5257     0.7458 C.ar    
   2 C2             0.4560     0.1761     1.0298 C.ar    
   3 C3             1.2861    -0.6435     0.2891 C.ar    
   4 C4             2.0476    -0.1122    -0.7441 C.ar    
   5 C5             1.9737     1.2431    -1.0324 C.ar    
   6 C6             1.1393     2.0635    -0.2868 C.ar    
   7 N7             1.0619     3.4311    -0.5743 N.am    
   8 C8            -0.1428     4.0149    -0.7032 C.2     
   9 N9            -0.2509     5.3282    -0.9790 N.am    
  10 C10            0.8591     6.0799    -1.1310 C.2     
  11 C11            2.1741     5.4484    -0.9916 C.2     
  12 N12            2.2394     4.1744    -0.7183 N.2     
  13 O13            0.7693     7.2677    -1.3813 O.2     
  14 C14           -1.5745     5.9413    -1.1146 C.3     
  15 O15           -1.1495     3.3465    -0.5689 O.2     
  16 N16            2.8886    -0.9427    -1.4930 N.am    
  17 C17            2.5155    -2.2084    -1.7675 C.2     
  18 C18            3.3714    -3.0695    -2.6602 C.3     
  19 O19            1.4908    -2.6543    -1.2961 O.2     
  20 C20           -2.0358     6.4430     0.2295 C.ar    
  21 C21           -1.7341     7.7323     0.6264 C.ar    
  22 C22           -2.1570     8.1930     1.8590 C.ar    
  23 C23           -2.8823     7.3635     2.6957 C.ar    
  24 C24           -3.1838     6.0731     2.2978 C.ar    
  25 C25           -2.7653     5.6155     1.0626 C.ar    
  26 Cl26          -3.4132     7.9412     4.2442 Cl      
  27 H27           -0.2724     2.1629     1.3239 H       
  28 H28           -0.1347    -0.2395     1.8328 H       
  29 H29            1.3432    -1.6983     0.5139 H       
  30 H30            2.5650     1.6587    -1.8349 H       
  31 H31            3.0763     6.0302    -1.1094 H       
  32 H32           -1.5186     6.7753    -1.8141 H       
  33 H33           -2.2815     5.2005    -1.4881 H       
  34 H34            3.7401    -0.6076    -1.8147 H       
  35 H35            4.2433    -2.5018    -2.9852 H       
  36 H36            3.6971    -3.9522    -2.1098 H       
  37 H37            2.7929    -3.3774    -3.5312 H       
  38 H38           -1.1677     8.3797    -0.0266 H       
  39 H39           -1.9209     9.2002     2.1692 H       
  40 H40           -3.7500     5.4251     2.9505 H       
  41 H41           -3.0007     4.6082     0.7520 H       
@<TRIPOS>BOND
   1    1    2 ar
   2    1    6 ar
   3    1   27 1
   4    2    3 ar
   5    2   28 1
   6    3    4 ar
   7    3   29 1
   8    4    5 ar
   9    4   16 1
  10    5    6 ar
  11    5   30 1
  12    6    7 1
  13    7    8 am
  14    7   12 1
  15    8    9 am
  16    8   15 2
  17    9   10 am
  18    9   14 1
  19   10   11 1
  20   10   13 2
  21   11   12 2
  22   11   31 1
  23   14   20 1
  24   14   32 1
  25   14   33 1
  26   16   17 am
  27   16   34 1
  28   17   18 1
  29   17   19 2
  30   18   35 1
  31   18   36 1
  32   18   37 1
  33   20   21 ar
  34   20   25 ar
  35   21   22 ar
  36   21   38 1
  37   22   23 ar
  38   22   39 1
  39   23   24 ar
  40   23   26 1
  41   24   25 ar
  42   24   40 1
  43   25   41 1

#	End of record

