#	Name: ASD02500602
#	Creating user name:	WinNT
#	Creation time:	15. 06. 2019 20:23

#	Modifying user name:	WinNT
#	Modification time:	15. 06. 2019 20:23

#	Program:	/corina/corina34_cracker 3.40 0067  02.08.2006

@<TRIPOS>MOLECULE
ASD02500602
  70   74    0    0    0
SMALL
NO_CHARGES


@<TRIPOS>ATOM
   1 N1            -4.0309     5.5280    -2.1367 N.ar    
   2 C2            -4.9674     6.1394    -2.8204 C.ar    
   3 C3            -6.2767     6.2295    -2.3523 C.ar    
   4 C4            -6.6112     5.6715    -1.1515 C.ar    
   5 C5            -5.6030     5.0154    -0.4201 C.ar    
   6 C6            -5.8714     4.4186     0.8219 C.ar    
   7 C7            -4.8688     3.7936     1.4989 C.ar    
   8 C8            -3.5788     3.7386     0.9755 C.ar    
   9 C9            -3.2835     4.3065    -0.2257 C.ar    
  10 C10           -4.2916     4.9608    -0.9545 C.ar    
  11 S11           -1.6433     4.2228    -0.8640 S.o2    
  12 O12           -1.2845     5.5499    -1.2237 O.2     
  13 O13           -0.8952     3.4370     0.0536 O.2     
  14 N14           -1.7098     3.3578    -2.2746 N.am    
  15 C15           -2.0194     2.0026    -2.2451 C.ar    
  16 C16           -1.4043     1.1298    -3.1389 C.ar    
  17 C17           -1.7084    -0.2117    -3.1122 C.ar    
  18 C18           -2.6362    -0.6984    -2.1863 C.ar    
  19 C19           -3.2519     0.1802    -1.2904 C.ar    
  20 C20           -2.9392     1.5202    -1.3183 C.ar    
  21 C21           -0.4048     1.6554    -4.1368 C.3     
  22 C22           -2.9649    -2.1362    -2.1554 C.2     
  23 O23           -3.1077    -2.7498    -3.1954 O.2     
  24 N24           -3.1070    -2.7697    -0.9743 N.am    
  25 C25           -3.3224    -4.2236    -0.9186 C.3     
  26 C26           -2.3066    -4.8292     0.0560 C.3     
  27 N27           -2.4003    -4.1374     1.3485 N.3     
  28 C28           -2.0458    -2.7176     1.2199 C.3     
  29 C29           -3.0448    -2.0264     0.2933 C.3     
  30 C30           -1.5664    -4.7986     2.3611 C.3     
  31 C31           -1.6200    -4.0011     3.6657 C.3     
  32 C32           -3.0581    -3.9722     4.1872 C.3     
  33 C33           -3.1116    -3.1748     5.4918 C.3     
  34 C34           -2.2053    -3.8366     6.5317 C.3     
  35 C35           -0.7672    -3.8655     6.0103 C.3     
  36 C36           -0.7136    -4.6630     4.7056 C.3     
  37 H37           -4.7174     6.5854    -3.7717 H       
  38 H38           -7.0262     6.7405    -2.9384 H       
  39 H39           -7.6210     5.7323    -0.7733 H       
  40 H40           -6.8673     4.4553     1.2382 H       
  41 H41           -5.0762     3.3347     2.4543 H       
  42 H42           -2.8006     3.2377     1.5320 H       
  43 H43           -1.5329     3.7966    -3.1214 H       
  44 H44           -1.2313    -0.8881    -3.8059 H       
  45 H45           -3.9689    -0.1928    -0.5741 H       
  46 H46           -3.4110     2.1989    -0.6232 H       
  47 H47            0.5941     1.6240    -3.7016 H       
  48 H48           -0.4293     1.0383    -5.0350 H       
  49 H49           -0.6562     2.6839    -4.3957 H       
  50 H50           -4.3338    -4.4308    -0.5689 H       
  51 H51           -3.1796    -4.6532    -1.9101 H       
  52 H52           -2.5220    -5.8887     0.1940 H       
  53 H53           -1.3008    -4.7116    -0.3474 H       
  54 H54           -2.0720    -2.2458     2.2021 H       
  55 H55           -1.0436    -2.6295     0.8003 H       
  56 H56           -2.7185    -1.0040     0.1026 H       
  57 H57           -4.0290    -2.0183     0.7618 H       
  58 H58           -1.9395    -5.8076     2.5365 H       
  59 H59           -0.5365    -4.8483     2.0077 H       
  60 H60           -1.2793    -2.9820     3.4829 H       
  61 H61           -3.7038    -3.5007     3.4463 H       
  62 H62           -3.3988    -4.9913     4.3700 H       
  63 H63           -2.7709    -2.1556     5.3089 H       
  64 H64           -4.1362    -3.1542     5.8633 H       
  65 H65           -2.2434    -3.2685     7.4611 H       
  66 H66           -2.5460    -4.8557     6.7146 H       
  67 H67           -0.4265    -2.8464     5.8274 H       
  68 H68           -0.1215    -4.3370     6.7511 H       
  69 H69           -1.0543    -5.6821     4.8885 H       
  70 H70            0.3109    -4.6835     4.3342 H       
@<TRIPOS>BOND
   1    1    2 ar
   2    1   10 ar
   3    2    3 ar
   4    2   37 1
   5    3    4 ar
   6    3   38 1
   7    4    5 ar
   8    4   39 1
   9    5    6 ar
  10    5   10 ar
  11    6    7 ar
  12    6   40 1
  13    7    8 ar
  14    7   41 1
  15    8    9 ar
  16    8   42 1
  17    9   10 ar
  18    9   11 1
  19   11   12 2
  20   11   13 2
  21   11   14 am
  22   14   15 1
  23   14   43 1
  24   15   16 ar
  25   15   20 ar
  26   16   17 ar
  27   16   21 1
  28   17   18 ar
  29   17   44 1
  30   18   19 ar
  31   18   22 1
  32   19   20 ar
  33   19   45 1
  34   20   46 1
  35   21   47 1
  36   21   48 1
  37   21   49 1
  38   22   23 2
  39   22   24 am
  40   24   25 1
  41   24   29 1
  42   25   26 1
  43   25   50 1
  44   25   51 1
  45   26   27 1
  46   26   52 1
  47   26   53 1
  48   27   28 1
  49   27   30 1
  50   28   29 1
  51   28   54 1
  52   28   55 1
  53   29   56 1
  54   29   57 1
  55   30   31 1
  56   30   58 1
  57   30   59 1
  58   31   32 1
  59   31   36 1
  60   31   60 1
  61   32   33 1
  62   32   61 1
  63   32   62 1
  64   33   34 1
  65   33   63 1
  66   33   64 1
  67   34   35 1
  68   34   65 1
  69   34   66 1
  70   35   36 1
  71   35   67 1
  72   35   68 1
  73   36   69 1
  74   36   70 1

#	End of record

