#	Name: ASD04590630
#	Creating user name:	WinNT
#	Creation time:	15. 06. 2019 20:51

#	Modifying user name:	WinNT
#	Modification time:	15. 06. 2019 20:51

#	Program:	/corina/corina34_cracker 3.40 0067  02.08.2006

@<TRIPOS>MOLECULE
ASD04590630
  72   77    0    0    0
SMALL
NO_CHARGES


@<TRIPOS>ATOM
   1 N1            -4.4824    -3.8241     1.7627 N.ar    
   2 C2            -3.2135    -3.4668     1.9132 C.ar    
   3 N3            -2.2571    -4.3447     2.1691 N.ar    
   4 C4            -2.5398    -5.6387     2.2868 C.ar    
   5 C5            -3.8790    -6.0504     2.1327 C.ar    
   6 C6            -4.8500    -5.0908     1.8639 C.ar    
   7 N7            -1.7719    -6.7476     2.5425 N.pl3   
   8 C8            -2.5585    -7.8863     2.5636 C.ar    
   9 C9            -3.8895    -7.5078     2.3124 C.ar    
  10 C10           -2.2810    -9.2308     2.7735 C.ar    
  11 N11           -3.2452   -10.1278     2.7373 N.ar    
  12 C12           -4.5052    -9.8053     2.5040 C.ar    
  13 C13           -4.8737    -8.4951     2.2840 C.ar    
  14 N14           -2.8780    -2.1279     1.7980 N.pl3   
  15 C15           -3.8486    -1.1947     1.4338 C.ar    
  16 C16           -0.3235    -6.7284     2.7617 C.3     
  17 C17            0.3860    -6.0900     1.5497 C.3     
  18 C18            0.0136    -5.8515     3.9804 C.3     
  19 C19            0.9162    -4.7109     3.4665 C.3     
  20 C20            0.5772    -4.6083     1.9586 C.3     
  21 N21           -5.0586    -1.6082     1.0938 N.ar    
  22 C22           -6.0076    -0.7613     0.7425 C.ar    
  23 C23           -5.7658     0.6039     0.7173 C.ar    
  24 C24           -4.5025     1.0770     1.0692 C.ar    
  25 C25           -3.5351     0.1601     1.4377 C.ar    
  26 N26           -6.7775     1.4960     0.3425 N.3     
  27 C27           -6.3439     2.3443    -0.7749 C.3     
  28 C28           -7.4143     3.3998    -1.0612 C.3     
  29 C29           -8.0166     0.7791     0.0152 C.3     
  30 C30           -9.1370     1.7879    -0.2475 C.3     
  31 C31           -8.7326     2.7020    -1.4074 C.3     
  32 N32           -9.7788     3.7097    -1.6261 N.3     
  33 C33           -9.4231     4.6060    -2.7343 C.3     
  34 C34          -11.0818     3.0734    -1.8612 C.3     
  35 C35          -10.9978     2.1827    -3.1024 C.3     
  36 C36          -10.3786     5.8008    -2.7508 C.3     
  37 H37           -5.8847    -5.3748     1.7410 H       
  38 H38           -1.2657    -9.5439     2.9677 H       
  39 H39           -5.2576   -10.5798     2.4847 H       
  40 H40           -5.9054    -8.2382     2.0942 H       
  41 H41           -1.9682    -1.8393     1.9706 H       
  42 H42            0.0436    -7.7427     2.9185 H       
  43 H43            1.3515    -6.5661     1.3785 H       
  44 H44           -0.2393    -6.1625     0.6599 H       
  45 H45           -0.9004    -5.4402     4.4087 H       
  46 H46            0.5450    -6.4400     4.7283 H       
  47 H47            0.6777    -3.7770     3.9755 H       
  48 H48            1.9672    -4.9643     3.6048 H       
  49 H49            1.4027    -4.1588     1.4068 H       
  50 H50           -0.3429    -4.0439     1.8070 H       
  51 H51           -6.9836    -1.1357     0.4712 H       
  52 H52           -4.2859     2.1350     1.0586 H       
  53 H53           -2.5458     0.4916     1.7168 H       
  54 H54           -5.4077     2.8379    -0.5141 H       
  55 H55           -6.1948     1.7284    -1.6618 H       
  56 H56           -7.5541     4.0249    -0.1792 H       
  57 H57           -7.0992     4.0194    -1.9008 H       
  58 H58           -7.8597     0.1706    -0.8754 H       
  59 H59           -8.2954     0.1359     0.8499 H       
  60 H60          -10.0526     1.2558    -0.5057 H       
  61 H61           -9.3039     2.3876     0.6473 H       
  62 H62           -8.6034     2.1075    -2.3118 H       
  63 H63           -8.4008     4.9601    -2.6014 H       
  64 H64           -9.5006     4.0656    -3.6778 H       
  65 H65          -11.3513     2.4670    -0.9964 H       
  66 H66          -11.8389     3.8420    -2.0161 H       
  67 H67          -10.2037     1.4480    -2.9694 H       
  68 H68          -11.9482     1.6685    -3.2456 H       
  69 H69          -10.7818     2.7970    -3.9764 H       
  70 H70          -10.2802     6.3576    -1.8190 H       
  71 H71          -10.1328     6.4510    -3.5903 H       
  72 H72          -11.4036     5.4449    -2.8549 H       
@<TRIPOS>BOND
   1    1    2 ar
   2    1    6 ar
   3    2    3 ar
   4    2   14 1
   5    3    4 ar
   6    4    5 ar
   7    4    7 1
   8    5    6 ar
   9    5    9 1
  10    6   37 1
  11    7    8 1
  12    7   16 1
  13    8    9 ar
  14    8   10 ar
  15    9   13 ar
  16   10   11 ar
  17   10   38 1
  18   11   12 ar
  19   12   13 ar
  20   12   39 1
  21   13   40 1
  22   14   15 1
  23   14   41 1
  24   15   21 ar
  25   15   25 ar
  26   16   18 1
  27   16   17 1
  28   16   42 1
  29   17   20 1
  30   17   43 1
  31   17   44 1
  32   18   19 1
  33   18   45 1
  34   18   46 1
  35   19   20 1
  36   19   47 1
  37   19   48 1
  38   20   49 1
  39   20   50 1
  40   21   22 ar
  41   22   23 ar
  42   22   51 1
  43   23   24 ar
  44   23   26 1
  45   24   25 ar
  46   24   52 1
  47   25   53 1
  48   26   29 1
  49   26   27 1
  50   27   28 1
  51   27   54 1
  52   27   55 1
  53   28   31 1
  54   28   56 1
  55   28   57 1
  56   29   30 1
  57   29   58 1
  58   29   59 1
  59   30   31 1
  60   30   60 1
  61   30   61 1
  62   31   32 1
  63   31   62 1
  64   32   33 1
  65   32   34 1
  66   33   36 1
  67   33   63 1
  68   33   64 1
  69   34   35 1
  70   34   65 1
  71   34   66 1
  72   35   67 1
  73   35   68 1
  74   35   69 1
  75   36   70 1
  76   36   71 1
  77   36   72 1

#	End of record

