#	Name: ASD01148782
#	Creating user name:	WinNT
#	Creation time:	15. 06. 2019 19:03

#	Modifying user name:	WinNT
#	Modification time:	15. 06. 2019 19:03

#	Program:	/corina/corina34_cracker 3.40 0067  02.08.2006

@<TRIPOS>MOLECULE
ASD01148782
  61   64    0    0    0
SMALL
NO_CHARGES


@<TRIPOS>ATOM
   1 N1             0.0433     1.3920    -0.2310 N.pl3   
   2 C2            -0.0127     0.0401    -0.1851 C.2     
   3 C3             1.2406    -0.4490     0.1115 C.2     
   4 C4             2.1184     0.7245     0.2540 C.2     
   5 C5             1.3184     1.8277     0.0306 C.2     
   6 C6             1.6246    -1.8603     0.2571 C.2     
   7 O7             2.0096    -2.4884    -0.7099 O.2     
   8 O8             1.5499    -2.4582     1.4630 O.3     
   9 C9            -1.0452     2.2279    -0.5118 C.ar    
  10 C10           -2.1002     2.3216     0.3860 C.ar    
  11 C11           -3.1717     3.1470     0.1065 C.ar    
  12 C12           -3.1945     3.8797    -1.0660 C.ar    
  13 C13           -2.1456     3.7882    -1.9624 C.ar    
  14 C14           -1.0685     2.9689    -1.6859 C.ar    
  15 S15           -4.5633     4.9316    -1.4189 S.o2    
  16 O16           -4.5912     5.0939    -2.8304 O.2     
  17 O17           -5.6616     4.4249    -0.6730 O.2     
  18 N18           -4.2139     6.4205    -0.7838 N.am    
  19 C19           -1.2455    -0.7941    -0.4203 C.3     
  20 C20            3.5640     0.7222     0.5723 C.ar    
  21 C21            4.4801     0.1961    -0.3381 C.ar    
  22 C22            5.8308     0.1976    -0.0340 C.ar    
  23 C23            6.2704     0.7218     1.1745 C.ar    
  24 C24            5.3633     1.2435     2.0778 C.ar    
  25 C25            4.0152     1.2516     1.7818 C.ar    
  26 O26            6.7268    -0.3145    -0.9183 O.3     
  27 C27            8.1042    -0.2805    -0.5395 C.3     
  28 C28            1.7596     3.2363     0.0665 C.ar    
  29 C29            1.0973     4.1581     0.8803 C.ar    
  30 C30            1.5143     5.4723     0.9093 C.ar    
  31 C31            2.5870     5.8788     0.1335 C.ar    
  32 C32            3.2480     4.9697    -0.6756 C.ar    
  33 C33            2.8447     3.6512    -0.7088 C.ar    
  34 Cl34           3.1050     7.5352     0.1748 Cl      
  35 C35            1.9451    -3.8537     1.5325 C.3     
  36 C36            1.7941    -4.3555     2.9700 C.3     
  37 H37           -2.0832     1.7493     1.3018 H       
  38 H38           -3.9928     3.2200     0.8043 H       
  39 H39           -2.1666     4.3611    -2.8776 H       
  40 H40           -0.2473     2.9016    -2.3841 H       
  41 H41           -3.3734     6.5656    -0.3218 H       
  42 H42           -4.8497     7.1475    -0.8738 H       
  43 H43           -1.3222    -1.0384    -1.4798 H       
  44 H44           -1.1781    -1.7139     0.1607 H       
  45 H45           -2.1279    -0.2334    -0.1119 H       
  46 H46            4.1369    -0.2115    -1.2775 H       
  47 H47            7.3245     0.7215     1.4096 H       
  48 H48            5.7110     1.6498     3.0161 H       
  49 H49            3.3095     1.6636     2.4880 H       
  50 H50            8.4110     0.7528    -0.3769 H       
  51 H51            8.2423    -0.8494     0.3800 H       
  52 H52            8.7101    -0.7189    -1.3324 H       
  53 H53            0.2602     3.8424     1.4852 H       
  54 H54            1.0030     6.1861     1.5382 H       
  55 H55            4.0838     5.2929    -1.2783 H       
  56 H56            3.3639     2.9421    -1.3365 H       
  57 H57            1.3096    -4.4445     0.8728 H       
  58 H58            2.9847    -3.9529     1.2203 H       
  59 H59            2.4296    -3.7646     3.6297 H       
  60 H60            0.7545    -4.2563     3.2822 H       
  61 H61            2.0908    -5.4030     3.0222 H       
@<TRIPOS>BOND
   1    1    2 1
   2    1    5 1
   3    1    9 1
   4    2    3 2
   5    2   19 1
   6    3    4 1
   7    3    6 1
   8    4    5 2
   9    4   20 1
  10    5   28 1
  11    6    7 2
  12    6    8 1
  13    8   35 1
  14    9   10 ar
  15    9   14 ar
  16   10   11 ar
  17   10   37 1
  18   11   12 ar
  19   11   38 1
  20   12   13 ar
  21   12   15 1
  22   13   14 ar
  23   13   39 1
  24   14   40 1
  25   15   16 2
  26   15   17 2
  27   15   18 am
  28   18   41 1
  29   18   42 1
  30   19   43 1
  31   19   44 1
  32   19   45 1
  33   20   21 ar
  34   20   25 ar
  35   21   22 ar
  36   21   46 1
  37   22   23 ar
  38   22   26 1
  39   23   24 ar
  40   23   47 1
  41   24   25 ar
  42   24   48 1
  43   25   49 1
  44   26   27 1
  45   27   50 1
  46   27   51 1
  47   27   52 1
  48   28   29 ar
  49   28   33 ar
  50   29   30 ar
  51   29   53 1
  52   30   31 ar
  53   30   54 1
  54   31   32 ar
  55   31   34 1
  56   32   33 ar
  57   32   55 1
  58   33   56 1
  59   35   36 1
  60   35   57 1
  61   35   58 1
  62   36   59 1
  63   36   60 1
  64   36   61 1

#	End of record

