#	Name: ASD01918583
#	Creating user name:	WinNT
#	Creation time:	15. 06. 2019 20:11

#	Modifying user name:	WinNT
#	Modification time:	15. 06. 2019 20:11

#	Program:	/corina/corina34_cracker 3.40 0067  02.08.2006

@<TRIPOS>MOLECULE
ASD01918583
  36   38    0    0    0
SMALL
NO_CHARGES


@<TRIPOS>ATOM
   1 C1            -0.0483     1.5789    -0.1129 C.3     
   2 C2            -0.0436     0.0722    -0.1444 C.ar    
   3 C3            -0.0261    -0.5838    -1.3619 C.ar    
   4 C4            -0.0219    -1.9758    -1.3856 C.ar    
   5 O5            -0.0044    -2.6512    -2.5630 O.3     
   6 C6             0.1274    -4.0724    -2.4938 C.3     
   7 C7            -1.1624    -4.8348    -2.8513 C.3     
   8 O8            -0.6485    -4.8450    -4.1983 O.3     
   9 C9             0.7202    -4.7048    -3.7672 C.3     
  10 C10           -0.0355    -2.6582    -0.1722 C.ar    
  11 C11           -0.0528    -1.9278     1.0118 C.ar    
  12 N12           -0.0508    -0.6000     0.9871 N.ar    
  13 C13           -0.0674    -2.6377     2.3120 C.2     
  14 O14           -0.0643    -3.8525     2.3410 O.2     
  15 N15           -0.0842    -1.9362     3.4626 N.am    
  16 C16           -0.2054    -2.6000     4.6814 C.ar    
  17 C17           -0.3289    -1.8664     5.8559 C.ar    
  18 C18           -0.4490    -2.5384     7.0598 C.ar    
  19 C19           -0.4415    -3.9264     7.0470 C.ar    
  20 C20           -0.3153    -4.5909     5.8428 C.ar    
  21 N21           -0.2075    -3.9236     4.7101 N.ar    
  22 H22            0.9782     1.9451    -0.0970 H       
  23 H23           -0.5561     1.9592    -0.9993 H       
  24 H24           -0.5704     1.9220     0.7802 H       
  25 H25           -0.0163    -0.0223    -2.2844 H       
  26 H26            0.6007    -4.4119    -1.5725 H       
  27 H27           -1.2302    -5.8237    -2.3977 H       
  28 H28           -2.0711    -4.2452    -2.7304 H       
  29 H29            1.3045    -4.0120    -4.3727 H       
  30 H30            1.2272    -5.6539    -3.5932 H       
  31 H31           -0.0330    -3.7380    -0.1503 H       
  32 H32           -0.0118    -0.9691     3.4422 H       
  33 H33           -0.3307    -0.7867     5.8293 H       
  34 H34           -0.5461    -1.9952     7.9881 H       
  35 H35           -0.5330    -4.4809     7.9692 H       
  36 H36           -0.3086    -5.6707     5.8280 H       
@<TRIPOS>BOND
   1    1    2 1
   2    1   22 1
   3    1   23 1
   4    1   24 1
   5    2   12 ar
   6    2    3 ar
   7    3    4 ar
   8    3   25 1
   9    4    5 1
  10    4   10 ar
  11    5    6 1
  12    6    9 1
  13    6    7 1
  14    6   26 1
  15    7    8 1
  16    7   27 1
  17    7   28 1
  18    8    9 1
  19    9   29 1
  20    9   30 1
  21   10   11 ar
  22   10   31 1
  23   11   12 ar
  24   11   13 1
  25   13   14 2
  26   13   15 am
  27   15   16 1
  28   15   32 1
  29   16   21 ar
  30   16   17 ar
  31   17   18 ar
  32   17   33 1
  33   18   19 ar
  34   18   34 1
  35   19   20 ar
  36   19   35 1
  37   20   21 ar
  38   20   36 1

#	End of record

