#	Name: ASD01411205
#	Creating user name:	WinNT
#	Creation time:	15. 06. 2019 19:19

#	Modifying user name:	WinNT
#	Modification time:	15. 06. 2019 19:19

#	Program:	/corina/corina34_cracker 3.40 0067  02.08.2006

@<TRIPOS>MOLECULE
ASD01411205
  68   71    0    0    0
SMALL
NO_CHARGES


@<TRIPOS>ATOM
   1 C1            -0.6921     1.1267    -1.7046 C.ar    
   2 C2            -0.4061    -0.2053    -1.5382 C.ar    
   3 C3             0.8576    -0.7120    -1.8345 C.ar    
   4 C4             1.8421     0.1495    -2.2991 C.ar    
   5 C5             1.5608     1.4913    -2.4663 C.ar    
   6 C6             0.2972     1.9867    -2.1728 C.ar    
   7 P7            -1.6535    -1.3749    -0.9198 P.3     
   8 N8            -0.8543    -2.7602    -0.5244 N.2     
   9 C9             0.3703    -2.9326    -0.9178 C.2     
  10 N10            1.1124    -2.0717    -1.6671 N.pl3   
  11 C11            1.0255    -4.1899    -0.5110 C.2     
  12 C12            0.4509    -5.1720     0.2368 C.2     
  13 C13            1.4924    -6.2553     0.3986 C.3     
  14 N14            2.6813    -5.7839    -0.3218 N.am    
  15 C15            2.3949    -4.5818    -0.8529 C.2     
  16 O16           -2.3205    -0.8166     0.2776 O.2     
  17 O17           -2.7418    -1.6761    -2.0674 O.3     
  18 O18           -0.7981    -5.1769     0.7342 O.3     
  19 O19            3.1641    -3.9141    -1.5184 O.2     
  20 C20           -3.5544    -0.6585    -2.6558 C.3     
  21 C21           -4.4744    -1.2842    -3.7060 C.3     
  22 C22            1.8186    -6.4557     1.8799 C.3     
  23 C23            0.5248    -6.7035     2.6581 C.3     
  24 C24            2.7481    -7.6606     2.0389 C.3     
  25 C25            2.5092    -5.2035     2.4240 C.3     
  26 N26            0.0190     3.3469    -2.3477 N.am    
  27 S27           -0.0640     4.3507    -1.0332 S.o2    
  28 O28           -0.2651     5.6422    -1.5907 O.2     
  29 O29           -1.0451     3.7528    -0.1970 O.2     
  30 C30            1.5780     4.2351    -0.2710 C.3     
  31 C31            3.9536    -6.4995    -0.4457 C.3     
  32 C32            3.8971    -7.4222    -1.6358 C.ar    
  33 C33            4.2952    -6.9706    -2.8801 C.ar    
  34 C34            4.2433    -7.8170    -3.9718 C.ar    
  35 C35            3.7938    -9.1152    -3.8190 C.ar    
  36 C36            3.3965    -9.5672    -2.5745 C.ar    
  37 C37            3.4525    -8.7221    -1.4820 C.ar    
  38 H38           -1.6784     1.5038    -1.4782 H       
  39 H39            2.8271    -0.2291    -2.5292 H       
  40 H40            2.3284     2.1595    -2.8278 H       
  41 H41            1.8858    -2.4368    -2.1247 H       
  42 H42            1.1346    -7.1881    -0.0373 H       
  43 H43           -1.3495    -4.4057     0.5438 H       
  44 H44           -4.1569    -0.1822    -1.8823 H       
  45 H45           -2.9162     0.0872    -3.1298 H       
  46 H46           -3.8718    -1.7604    -4.4794 H       
  47 H47           -5.1126    -2.0299    -3.2320 H       
  48 H48           -5.0942    -0.5079    -4.1548 H       
  49 H49            0.0329    -7.5956     2.2705 H       
  50 H50            0.7573    -6.8463     3.7134 H       
  51 H51           -0.1374    -5.8451     2.5448 H       
  52 H52            3.7801    -7.3464     1.8829 H       
  53 H53            2.6413    -8.0719     3.0427 H       
  54 H54            2.4851    -8.4218     1.3044 H       
  55 H55            1.8470    -4.3452     2.3107 H       
  56 H56            2.7416    -5.3463     3.4793 H       
  57 H57            3.4309    -5.0270     1.8696 H       
  58 H58           -0.1253     3.7018    -3.2388 H       
  59 H59            2.3404     4.4749    -1.0122 H       
  60 H60            1.6438     4.9390     0.5587 H       
  61 H61            1.7365     3.2220     0.0986 H       
  62 H62            4.7626    -5.7815    -0.5807 H       
  63 H63            4.1321    -7.0824     0.4579 H       
  64 H64            4.6465    -5.9563    -2.9995 H       
  65 H65            4.5537    -7.4639    -4.9441 H       
  66 H66            3.7526    -9.7763    -4.6721 H       
  67 H67            3.0449   -10.5814    -2.4552 H       
  68 H68            3.1456    -9.0763    -0.5090 H       
@<TRIPOS>BOND
   1    1    2 ar
   2    1    6 ar
   3    1   38 1
   4    2    3 ar
   5    2    7 1
   6    3    4 ar
   7    3   10 1
   8    4    5 ar
   9    4   39 1
  10    5    6 ar
  11    5   40 1
  12    6   26 1
  13    7    8 1
  14    7   16 2
  15    7   17 1
  16    8    9 2
  17    9   10 1
  18    9   11 1
  19   10   41 1
  20   11   12 2
  21   11   15 1
  22   12   13 1
  23   12   18 1
  24   13   14 1
  25   13   22 1
  26   13   42 1
  27   14   15 am
  28   14   31 1
  29   15   19 2
  30   17   20 1
  31   18   43 1
  32   20   21 1
  33   20   44 1
  34   20   45 1
  35   21   46 1
  36   21   47 1
  37   21   48 1
  38   22   23 1
  39   22   24 1
  40   22   25 1
  41   23   49 1
  42   23   50 1
  43   23   51 1
  44   24   52 1
  45   24   53 1
  46   24   54 1
  47   25   55 1
  48   25   56 1
  49   25   57 1
  50   26   27 am
  51   26   58 1
  52   27   28 2
  53   27   29 2
  54   27   30 1
  55   30   59 1
  56   30   60 1
  57   30   61 1
  58   31   32 1
  59   31   62 1
  60   31   63 1
  61   32   33 ar
  62   32   37 ar
  63   33   34 ar
  64   33   64 1
  65   34   35 ar
  66   34   65 1
  67   35   36 ar
  68   35   66 1
  69   36   37 ar
  70   36   67 1
  71   37   68 1

#	End of record

