#	Name: ASD04560101
#	Creating user name:	WinNT
#	Creation time:	15. 06. 2019 20:49

#	Modifying user name:	WinNT
#	Modification time:	15. 06. 2019 20:49

#	Program:	/corina/corina34_cracker 3.40 0067  02.08.2006

@<TRIPOS>MOLECULE
ASD04560101
  55   58    0    0    0
SMALL
NO_CHARGES


@<TRIPOS>ATOM
   1 C1            -0.0173     1.3666     0.0244 C.ar    
   2 C2             0.0010    -0.0041     0.0240 C.ar    
   3 C3             1.2157    -0.6859     0.0136 C.ar    
   4 C4             2.4151     0.0225     0.0034 C.ar    
   5 C5             2.4031     1.3933     0.0042 C.ar    
   6 C6             1.1852     2.0805     0.0143 C.ar    
   7 C7             1.1690     3.5549     0.0146 C.2     
   8 O8             2.2154     4.1746     0.0062 O.2     
   9 N9            -0.0055     4.2159     0.0243 N.am    
  10 C10           -0.0226     5.6108     0.1376 C.ar    
  11 C11           -0.9920     6.3506    -0.5268 C.ar    
  12 C12            0.9074     7.6331     1.0301 C.ar    
  13 C13            0.9263     6.2566     0.9193 C.ar    
  14 S14            1.2351    -2.4478     0.0137 S.3     
  15 C15           -1.0073     7.7269    -0.4133 C.ar    
  16 C16           -0.0567     8.3693     0.3621 C.ar    
  17 F17           -0.0734     9.7157     0.4718 F       
  18 C18            3.0069    -2.8364    -0.0017 C.3     
  19 C19            3.1932    -4.3318    -0.0030 C.2     
  20 C20            4.5450    -4.9028    -0.0147 C.ar    
  21 O21            2.2257    -5.0636     0.0055 O.2     
  22 C22            4.7206    -6.2929    -0.0160 C.ar    
  23 C23            5.9801    -6.8200    -0.0274 C.ar    
  24 C24            7.0898    -5.9777    -0.0372 C.ar    
  25 C25            6.9199    -4.5950    -0.0360 C.ar    
  26 C26            5.6638    -4.0595    -0.0305 C.ar    
  27 N27            8.3692    -6.5181    -0.0478 N.3     
  28 C28            9.3885    -5.4588    -0.0570 C.3     
  29 C29            8.5490    -7.4240    -1.1917 C.3     
  30 C30            9.9486    -8.0417    -1.1315 C.3     
  31 O31           10.9248    -6.9968    -1.1097 O.3     
  32 C32           10.7797    -6.0962    -0.0082 C.3     
  33 H33           -0.9594     1.8947     0.0280 H       
  34 H34           -0.9274    -0.5560     0.0322 H       
  35 H35            3.3553    -0.5088    -0.0047 H       
  36 H36            3.3333     1.9420    -0.0029 H       
  37 H37           -0.8390     3.7249    -0.0472 H       
  38 H38           -1.7331     5.8500    -1.1322 H       
  39 H39            1.6452     8.1357     1.6379 H       
  40 H40            1.6784     5.6828     1.4404 H       
  41 H41           -1.7610     8.3026    -0.9299 H       
  42 H42            3.4641    -2.4125    -0.8957 H       
  43 H43            3.4796    -2.4122     0.8841 H       
  44 H44            3.8609    -6.9466    -0.0076 H       
  45 H45            6.1163    -7.8913    -0.0284 H       
  46 H46            7.7828    -3.9457    -0.0436 H       
  47 H47            5.5329    -2.9875    -0.0295 H       
  48 H48            9.2908    -4.8675    -0.9675 H       
  49 H49            9.2524    -4.8151     0.8120 H       
  50 H50            7.8001    -8.2149    -1.1509 H       
  51 H51            8.4379    -6.8642    -2.1203 H       
  52 H52           10.0414    -8.6454    -0.2288 H       
  53 H53           10.1072    -8.6698    -2.0081 H       
  54 H54           11.5394    -5.3172    -0.0725 H       
  55 H55           10.8967    -6.6434     0.9272 H       
@<TRIPOS>BOND
   1    1    2 ar
   2    1    6 ar
   3    1   33 1
   4    2    3 ar
   5    2   34 1
   6    3    4 ar
   7    3   14 1
   8    4    5 ar
   9    4   35 1
  10    5    6 ar
  11    5   36 1
  12    6    7 1
  13    7    8 2
  14    7    9 am
  15    9   10 1
  16    9   37 1
  17   10   11 ar
  18   10   13 ar
  19   11   15 ar
  20   11   38 1
  21   12   13 ar
  22   12   16 ar
  23   12   39 1
  24   13   40 1
  25   14   18 1
  26   15   16 ar
  27   15   41 1
  28   16   17 1
  29   18   19 1
  30   18   42 1
  31   18   43 1
  32   19   20 1
  33   19   21 2
  34   20   22 ar
  35   20   26 ar
  36   22   23 ar
  37   22   44 1
  38   23   24 ar
  39   23   45 1
  40   24   25 ar
  41   24   27 1
  42   25   26 ar
  43   25   46 1
  44   26   47 1
  45   27   28 1
  46   27   29 1
  47   28   32 1
  48   28   48 1
  49   28   49 1
  50   29   30 1
  51   29   50 1
  52   29   51 1
  53   30   31 1
  54   30   52 1
  55   30   53 1
  56   31   32 1
  57   32   54 1
  58   32   55 1

#	End of record

