#	Name: ASD01148074
#	Creating user name:	WinNT
#	Creation time:	15. 06. 2019 19:01

#	Modifying user name:	WinNT
#	Modification time:	15. 06. 2019 19:01

#	Program:	/corina/corina34_cracker 3.40 0067  02.08.2006

@<TRIPOS>MOLECULE
ASD01148074
  36   36    0    0    0
SMALL
NO_CHARGES


@<TRIPOS>ATOM
   1 C1            -0.0184     1.5028     0.0103 C.2     
   2 C2             0.0021    -0.0041     0.0020 C.3     
   3 C3            -0.2279    -0.5251     1.4221 C.3     
   4 O4             1.0236     2.1234     0.0037 O.2     
   5 N5            -1.1946     2.1607     0.0195 N.am    
   6 O6            -0.3247    -1.9505     1.3966 O.3     
   7 C7            -0.5409    -2.5414     2.6797 C.3     
   8 F8             0.5221    -2.2149     3.5286 F       
   9 F9            -1.7361    -2.0561     3.2211 F       
  10 C10           -1.2145     3.6256     0.0275 C.3     
  11 C11           -2.6419     4.1085     0.0369 C.ar    
  12 N12            1.3019    -0.4721    -0.4853 N.am    
  13 C13            2.4293    -0.1348     0.1718 C.2     
  14 C14            3.7664    -0.6163    -0.3296 C.3     
  15 C15           -3.2902     4.3233     1.2386 C.ar    
  16 C16           -4.5999     4.7659     1.2498 C.ar    
  17 C17           -5.2630     4.9948     0.0571 C.ar    
  18 C18           -4.6124     4.7798    -1.1487 C.ar    
  19 C19           -3.2999     4.3417    -1.1565 C.ar    
  20 O20            2.3676     0.5562     1.1666 O.2     
  21 F21           -5.2580     5.0022    -2.3145 F       
  22 F22           -6.5430     5.4270     0.0672 F       
  23 H23           -0.7864    -0.3745    -0.6531 H       
  24 H24            0.6068    -0.2288     2.0574 H       
  25 H25           -1.1526    -0.1051     1.8179 H       
  26 H26           -2.0280     1.6644     0.0207 H       
  27 H27           -0.6028    -3.6246     2.5751 H       
  28 H28           -0.7014     3.9910     0.9171 H       
  29 H29           -0.7098     4.0007    -0.8628 H       
  30 H30            1.3512    -1.0248    -1.2810 H       
  31 H31            3.6226    -1.2190    -1.2264 H       
  32 H32            4.3963     0.2414    -0.5653 H       
  33 H33            4.2473    -1.2197     0.4404 H       
  34 H34           -2.7731     4.1447     2.1698 H       
  35 H35           -5.1056     4.9326     2.1894 H       
  36 H36           -2.7920     4.1743    -2.0948 H       
@<TRIPOS>BOND
   1    1    2 1
   2    1    4 2
   3    1    5 am
   4    2    3 1
   5    2   12 1
   6    2   23 1
   7    3    6 1
   8    3   24 1
   9    3   25 1
  10    5   10 1
  11    5   26 1
  12    6    7 1
  13    7    8 1
  14    7    9 1
  15    7   27 1
  16   10   11 1
  17   10   28 1
  18   10   29 1
  19   11   15 ar
  20   11   19 ar
  21   12   13 am
  22   12   30 1
  23   13   14 1
  24   13   20 2
  25   14   31 1
  26   14   32 1
  27   14   33 1
  28   15   16 ar
  29   15   34 1
  30   16   17 ar
  31   16   35 1
  32   17   18 ar
  33   17   22 1
  34   18   19 ar
  35   18   21 1
  36   19   36 1

#	End of record

