#	Name: ASD01811467
#	Creating user name:	WinNT
#	Creation time:	15. 06. 2019 19:26

#	Modifying user name:	WinNT
#	Modification time:	15. 06. 2019 19:26

#	Program:	/corina/corina34_cracker 3.40 0067  02.08.2006

@<TRIPOS>MOLECULE
ASD01811467
  68   73    0    0    0
SMALL
NO_CHARGES


@<TRIPOS>ATOM
   1 C1            -7.9620     2.0823     2.4133 C.1     
   2 C2            -6.7988     2.8884     2.1944 C.ar    
   3 C3            -5.5500     2.4544     2.6437 C.ar    
   4 C4            -4.4337     3.2359     2.4295 C.ar    
   5 C5            -4.5495     4.4476     1.7715 C.ar    
   6 C6            -5.7839     4.8839     1.3240 C.ar    
   7 C7            -6.9074     4.1093     1.5256 C.ar    
   8 N8            -8.8847     1.4428     2.5870 N.1     
   9 N9            -1.8974     7.7375     1.5203 N.am    
  10 C10           -2.3816     7.2069     0.2386 C.3     
  11 C11           -3.6377     6.3683     0.4951 C.3     
  12 C12           -3.3255     5.2962     1.5416 C.3     
  13 C13           -2.9159     5.9667     2.8549 C.3     
  14 C14           -1.6516     6.8007     2.6252 C.3     
  15 F15           -2.2782     4.4893     1.0841 F       
  16 C16           -1.6775     9.0579     1.6778 C.2     
  17 C17           -1.2736     9.5878     2.9978 C.ar    
  18 C18           -2.0198    10.6016     3.6032 C.ar    
  19 C19           -1.6438    11.0974     4.8355 C.ar    
  20 C20           -0.5287    10.5958     5.4776 C.ar    
  21 C21            0.2259     9.5824     4.8836 C.ar    
  22 C22           -0.1513     9.0732     3.6431 C.ar    
  23 O23           -1.8112     9.8130     0.7347 O.2     
  24 C24            1.4203     9.0468     5.5727 C.2     
  25 N25            2.3024     8.1390     5.0550 N.pl3   
  26 C26            3.2459     7.9207     6.0077 C.2     
  27 C27            2.9239     8.6895     7.0771 C.2     
  28 N28            1.8179     9.3677     6.7875 N.2     
  29 C29            4.4520     7.0184     5.9690 C.3     
  30 C30            3.7469     8.7098     8.3428 C.3     
  31 C31            4.6699     7.4827     8.3203 C.3     
  32 O32            5.3189     7.3915     7.0493 O.3     
  33 C33           -3.2375    11.1557     2.9095 C.3     
  34 C34           -0.1253    11.1438     6.8222 C.3     
  35 C35            0.0806    12.6677     6.8298 C.3     
  36 C36           -0.6062    12.6748     8.2056 C.3     
  37 C37           -1.3112    11.3784     7.7728 C.3     
  38 H38           -5.4584     1.5091     3.1580 H       
  39 H39           -3.4672     2.9015     2.7764 H       
  40 H40           -5.8673     5.8309     0.8115 H       
  41 H41           -7.8696     4.4488     1.1716 H       
  42 H42           -2.6237     8.0325    -0.4306 H       
  43 H43           -1.6109     6.5820    -0.2127 H       
  44 H44           -4.4367     7.0127     0.8616 H       
  45 H45           -3.9518     5.8905    -0.4328 H       
  46 H46           -3.7218     6.6149     3.1992 H       
  47 H47           -2.7164     5.2029     3.6065 H       
  48 H48           -0.8214     6.1427     2.3685 H       
  49 H49           -1.4122     7.3583     3.5306 H       
  50 H50           -2.2241    11.8813     5.2994 H       
  51 H51            0.4264     8.2860     3.1816 H       
  52 H52            2.2619     7.7294     4.1767 H       
  53 H53            4.1400     5.9808     6.0884 H       
  54 H54            4.9732     7.1402     5.0195 H       
  55 H55            4.3444     9.6207     8.3803 H       
  56 H56            3.0901     8.6620     9.2114 H       
  57 H57            5.4205     7.5790     9.1048 H       
  58 H58            4.0803     6.5822     8.4920 H       
  59 H59           -4.0998    10.5272     3.1318 H       
  60 H60           -3.4265    12.1697     3.2618 H       
  61 H61           -3.0669    11.1710     1.8330 H       
  62 H62            0.6966    10.5899     7.2758 H       
  63 H63            1.1283    12.9666     6.8632 H       
  64 H64           -0.4846    13.1885     6.0569 H       
  65 H65            0.0835    12.5395     9.0387 H       
  66 H66           -1.2863    13.5143     8.3499 H       
  67 H67           -2.2570    11.5467     7.2577 H       
  68 H68           -1.3871    10.6364     8.5676 H       
@<TRIPOS>BOND
   1    1    2 1
   2    1    8 3
   3    2    3 ar
   4    2    7 ar
   5    3    4 ar
   6    3   38 1
   7    4    5 ar
   8    4   39 1
   9    5    6 ar
  10    5   12 1
  11    6    7 ar
  12    6   40 1
  13    7   41 1
  14    9   10 1
  15    9   14 1
  16    9   16 am
  17   10   11 1
  18   10   42 1
  19   10   43 1
  20   11   12 1
  21   11   44 1
  22   11   45 1
  23   12   13 1
  24   12   15 1
  25   13   14 1
  26   13   46 1
  27   13   47 1
  28   14   48 1
  29   14   49 1
  30   16   17 1
  31   16   23 2
  32   17   18 ar
  33   17   22 ar
  34   18   19 ar
  35   18   33 1
  36   19   20 ar
  37   19   50 1
  38   20   21 ar
  39   20   34 1
  40   21   22 ar
  41   21   24 1
  42   22   51 1
  43   24   25 1
  44   24   28 2
  45   25   26 1
  46   25   52 1
  47   26   27 2
  48   26   29 1
  49   27   28 1
  50   27   30 1
  51   29   32 1
  52   29   53 1
  53   29   54 1
  54   30   31 1
  55   30   55 1
  56   30   56 1
  57   31   32 1
  58   31   57 1
  59   31   58 1
  60   33   59 1
  61   33   60 1
  62   33   61 1
  63   34   35 1
  64   34   37 1
  65   34   62 1
  66   35   36 1
  67   35   63 1
  68   35   64 1
  69   36   37 1
  70   36   65 1
  71   36   66 1
  72   37   67 1
  73   37   68 1

#	End of record

