#	Name: ASD01810302
#	Creating user name:	WinNT
#	Creation time:	15. 06. 2019 19:24

#	Modifying user name:	WinNT
#	Modification time:	15. 06. 2019 19:24

#	Program:	/corina/corina34_cracker 3.40 0067  02.08.2006

@<TRIPOS>MOLECULE
ASD01810302
  39   42    0    0    0
SMALL
NO_CHARGES


@<TRIPOS>ATOM
   1 C1            -0.0167     1.3820     0.0096 C.ar    
   2 C2             0.0021    -0.0041     0.0020 C.ar    
   3 C3             1.1959    -0.6932    -0.0127 C.ar    
   4 C4             2.4016     0.0019    -0.0200 C.ar    
   5 C5             2.3831     1.4075    -0.0128 C.ar    
   6 C6             1.1665     2.0939     0.0022 C.ar    
   7 N7             3.6010    -0.6771    -0.0337 N.pl3   
   8 C8             4.7870    -0.0549    -0.0404 C.2     
   9 C9             4.8957     1.3208    -0.0340 C.2     
  10 C10            3.6667     2.1313    -0.0207 C.2     
  11 O11            3.7091     3.3491    -0.0150 O.2     
  12 C12            3.5775    -2.1419    -0.0409 C.3     
  13 C13            3.5572    -2.6371    -1.4640 C.ar    
  14 C14            4.7471    -2.8827    -2.1252 C.ar    
  15 C15            4.7343    -3.3358    -3.4289 C.ar    
  16 C16            3.5200    -3.5463    -4.0786 C.ar    
  17 C17            2.3244    -3.2977    -3.4078 C.ar    
  18 C18            2.3488    -2.8497    -2.1025 C.ar    
  19 C19            3.5000    -4.0330    -5.4806 C.2     
  20 C20            6.2161     1.9660    -0.0412 C.2     
  21 O21            6.3092     3.3109    -0.0348 O.3     
  22 O22            7.2244     1.2870    -0.0529 O.2     
  23 C23            2.3580    -4.2652    -6.1906 C.2     
  24 S24            2.9197    -4.8053    -7.7251 S.3     
  25 N25            4.4439    -4.7069    -7.3864 N.2     
  26 N26            4.5888    -4.2874    -6.1911 N.2     
  27 F27            1.1476     3.4448     0.0091 F       
  28 H28           -0.9604     1.9071     0.0170 H       
  29 H29           -0.9295    -0.5505     0.0080 H       
  30 H30            1.1956    -1.7731    -0.0181 H       
  31 H31            5.6884    -0.6497    -0.0508 H       
  32 H32            4.4660    -2.5220     0.4634 H       
  33 H33            2.6863    -2.4936     0.4789 H       
  34 H34            5.6879    -2.7192    -1.6206 H       
  35 H35            5.6640    -3.5266    -3.9444 H       
  36 H36            1.3804    -3.4591    -3.9068 H       
  37 H37            1.4226    -2.6570    -1.5814 H       
  38 H38            7.1990     3.6894    -0.0400 H       
  39 H39            1.3361    -4.1394    -5.8643 H       
@<TRIPOS>BOND
   1    1    2 ar
   2    1    6 ar
   3    1   28 1
   4    2    3 ar
   5    2   29 1
   6    3    4 ar
   7    3   30 1
   8    4    5 ar
   9    4    7 1
  10    5    6 ar
  11    5   10 1
  12    6   27 1
  13    7    8 1
  14    7   12 1
  15    8    9 2
  16    8   31 1
  17    9   10 1
  18    9   20 1
  19   10   11 2
  20   12   13 1
  21   12   32 1
  22   12   33 1
  23   13   14 ar
  24   13   18 ar
  25   14   15 ar
  26   14   34 1
  27   15   16 ar
  28   15   35 1
  29   16   17 ar
  30   16   19 1
  31   17   18 ar
  32   17   36 1
  33   18   37 1
  34   19   23 2
  35   19   26 1
  36   20   21 1
  37   20   22 2
  38   21   38 1
  39   23   24 1
  40   23   39 1
  41   24   25 1
  42   25   26 2

#	End of record

