#	Name: ASD00560005
#	Creating user name:	WinNT
#	Creation time:	15. 06. 2019 18:36

#	Modifying user name:	WinNT
#	Modification time:	15. 06. 2019 18:36

#	Program:	/corina/corina34_cracker 3.40 0067  02.08.2006

@<TRIPOS>MOLECULE
ASD00560005
  35   38    0    0    0
SMALL
NO_CHARGES


@<TRIPOS>ATOM
   1 C1            -0.0169     1.3953     0.0097 C.2     
   2 C2             0.0021    -0.0041     0.0020 C.2     
   3 N3            -1.3074    -0.4015     0.0131 N.pl3   
   4 C4            -2.0778     0.7250     0.0270 C.2     
   5 N5            -1.3164     1.7799     0.0296 N.2     
   6 C6             1.2158     2.0892     0.0017 C.2     
   7 N7             2.3583     1.3675    -0.0131 N.am    
   8 C8             2.3120     0.0052    -0.0200 C.2     
   9 N9             1.1733    -0.6511    -0.0133 N.2     
  10 O10            1.2468     3.3079     0.0075 O.2     
  11 N11            3.4882    -0.7014    -0.0355 N.pl3   
  12 C12           -1.7935    -1.7836     0.0099 C.3     
  13 O13           -3.1248    -1.8367     0.5658 O.3     
  14 C14           -4.0220    -2.2277    -0.4587 C.3     
  15 C15           -3.1807    -3.1309    -1.3992 C.3     
  16 C16           -1.8785    -2.3094    -1.4482 C.3     
  17 C17           -5.2758    -2.9668    -0.0401 C.3     
  18 O18           -3.8876    -3.1732    -2.6439 O.3     
  19 P19           -5.4278    -3.7088    -2.5937 P.3     
  20 O20           -6.0860    -3.1237    -1.2300 O.3     
  21 O21           -6.2406    -3.1664    -3.8733 O.3     
  22 O22           -5.4479    -5.1885    -2.5704 O.2     
  23 O23           -1.9877    -1.2295    -2.3776 O.3     
  24 H24           -3.1577     0.7387     0.0380 H       
  25 H25            3.2156     1.8212    -0.0192 H       
  26 H26            4.3365    -0.2311    -0.0413 H       
  27 H27            3.4714    -1.6712    -0.0405 H       
  28 H28           -1.1227    -2.4133     0.5944 H       
  29 H29           -4.3225    -1.3390    -1.0138 H       
  30 H30           -3.0202    -4.1249    -0.9818 H       
  31 H31           -1.0244    -2.9435    -1.6860 H       
  32 H32           -5.0144    -3.9447     0.3643 H       
  33 H33           -5.8186    -2.3868     0.7063 H       
  34 H34           -7.1644    -3.4507    -3.9018 H       
  35 H35           -1.1916    -0.6844    -2.4425 H       
@<TRIPOS>BOND
   1    1    2 2
   2    1    6 1
   3    1    5 1
   4    2    3 1
   5    2    9 1
   6    3    4 1
   7    3   12 1
   8    4    5 2
   9    4   24 1
  10    6    7 am
  11    6   10 2
  12    7    8 1
  13    7   25 1
  14    8    9 2
  15    8   11 1
  16   11   26 1
  17   11   27 1
  18   12   13 1
  19   12   16 1
  20   12   28 1
  21   13   14 1
  22   14   15 1
  23   14   17 1
  24   14   29 1
  25   15   16 1
  26   15   18 1
  27   15   30 1
  28   16   23 1
  29   16   31 1
  30   17   20 1
  31   17   32 1
  32   17   33 1
  33   18   19 1
  34   19   20 1
  35   19   21 1
  36   19   22 2
  37   21   34 1
  38   23   35 1

#	End of record

