#	Name: ASD03731631
#	Creating user name:	WinNT
#	Creation time:	15. 06. 2019 20:46

#	Modifying user name:	WinNT
#	Modification time:	15. 06. 2019 20:46

#	Program:	/corina/corina34_cracker 3.40 0067  02.08.2006

@<TRIPOS>MOLECULE
ASD03731631
  37   38    0    0    0
SMALL
NO_CHARGES


@<TRIPOS>ATOM
   1 C1            -0.4034     1.1051    -1.9596 C.2     
   2 C2            -0.2818    -0.2730    -1.4496 C.ar    
   3 C3             0.9020    -0.9932    -1.6480 C.ar    
   4 C4             1.0109    -2.2831    -1.1686 C.ar    
   5 C5            -0.0517    -2.8660    -0.4912 C.ar    
   6 C6            -1.2310    -2.1529    -0.2917 C.ar    
   7 C7            -1.3466    -0.8625    -0.7613 C.ar    
   8 O8             0.5256     1.6177    -2.5536 O.2     
   9 N9            -1.5461     1.7946    -1.7723 N.am    
  10 S10           -1.6827     3.3424    -2.3451 S.o2    
  11 O11           -2.9849     3.7494    -1.9481 O.2     
  12 O12           -0.5259     4.0026    -1.8499 O.2     
  13 C13           -1.5926     3.1672    -4.1484 C.3     
  14 O14            0.0593    -4.1350    -0.0222 O.3     
  15 C15            1.2616    -4.7565    -0.1420 C.ar    
  16 C16            2.2126    -4.6278     0.8605 C.ar    
  17 C17            3.4370    -5.2610     0.7389 C.ar    
  18 C18            3.7151    -6.0232    -0.3827 C.ar    
  19 C19            2.7666    -6.1532    -1.3865 C.ar    
  20 C20            1.5369    -5.5243    -1.2633 C.ar    
  21 O21            3.0403    -6.9012    -2.4876 O.3     
  22 C22            4.3245    -7.5253    -2.5451 C.3     
  23 F23            4.3619    -5.1349     1.7155 F       
  24 F24           -2.2617    -2.7252     0.3682 F       
  25 F25            1.9360    -0.4270    -2.3078 F       
  26 H26            1.9237    -2.8398    -1.3210 H       
  27 H27           -2.2602    -0.3089    -0.6020 H       
  28 H28           -2.2886     1.3843    -1.3019 H       
  29 H29           -2.4089     2.5323    -4.4930 H       
  30 H30           -1.6752     4.1496    -4.6134 H       
  31 H31           -0.6397     2.7145    -4.4223 H       
  32 H32            1.9972    -4.0329     1.7357 H       
  33 H33            4.6713    -6.5166    -0.4764 H       
  34 H34            0.7959    -5.6288    -2.0420 H       
  35 H35            5.1015    -6.7618    -2.5092 H       
  36 H36            4.4388    -8.2002    -1.6967 H       
  37 H37            4.4127    -8.0902    -3.4731 H       
@<TRIPOS>BOND
   1    1    2 1
   2    1    8 2
   3    1    9 am
   4    2    3 ar
   5    2    7 ar
   6    3    4 ar
   7    3   25 1
   8    4    5 ar
   9    4   26 1
  10    5    6 ar
  11    5   14 1
  12    6    7 ar
  13    6   24 1
  14    7   27 1
  15    9   10 am
  16    9   28 1
  17   10   11 2
  18   10   12 2
  19   10   13 1
  20   13   29 1
  21   13   30 1
  22   13   31 1
  23   14   15 1
  24   15   16 ar
  25   15   20 ar
  26   16   17 ar
  27   16   32 1
  28   17   18 ar
  29   17   23 1
  30   18   19 ar
  31   18   33 1
  32   19   20 ar
  33   19   21 1
  34   20   34 1
  35   21   22 1
  36   22   35 1
  37   22   36 1
  38   22   37 1

#	End of record

