#	Name: ASD00310326
#	Creating user name:	WinNT
#	Creation time:	15. 06. 2019 18:34

#	Modifying user name:	WinNT
#	Modification time:	15. 06. 2019 18:34

#	Program:	/corina/corina34_cracker 3.40 0067  02.08.2006

@<TRIPOS>MOLECULE
ASD00310326
  37   38    0    0    0
SMALL
NO_CHARGES


@<TRIPOS>ATOM
   1 N1            -0.0164     1.3577     0.0095 N.am    
   2 C2             0.0021    -0.0041     0.0020 C.2     
   3 C3             1.2900    -0.4459    -0.0127 C.2     
   4 C4             2.1486     0.7548    -0.0144 C.ar    
   5 C5             3.5262     0.9559    -0.0265 C.ar    
   6 C6             4.0290     2.2398    -0.0244 C.ar    
   7 C7             3.1672     3.3286    -0.0103 C.ar    
   8 C8             1.8006     3.1412     0.0022 C.ar    
   9 C9             1.2770     1.8539    -0.0002 C.ar    
  10 C10           -1.1322     2.1136     0.0191 C.2     
  11 O11           -1.0450     3.3249     0.0248 O.2     
  12 O12           -2.3429     1.5261     0.0224 O.3     
  13 C13            1.7377    -1.8445    -0.0244 C.2     
  14 O14            2.9257    -2.1025    -0.0367 O.2     
  15 O15            0.8311    -2.8425    -0.0216 O.3     
  16 Cl16           3.8151     4.9392    -0.0078 Cl      
  17 Br17           5.8993     2.5190    -0.0401 Br      
  18 C18            1.3455    -4.2003    -0.0338 C.3     
  19 C19           -3.5007     2.4023     0.0328 C.3     
  20 C20           -3.4786     3.2915    -1.2120 C.3     
  21 C21           -4.7778     1.5598     0.0352 C.3     
  22 C22           -3.4657     3.2788     1.2864 C.3     
  23 H23           -0.8725    -0.6377     0.0075 H       
  24 H24            4.1979     0.1103    -0.0371 H       
  25 H25            1.1381     3.9941     0.0138 H       
  26 H26            1.9628    -4.3629     0.8497 H       
  27 H27            0.5132    -4.9042    -0.0301 H       
  28 H28            1.9465    -4.3531    -0.9302 H       
  29 H29           -3.5036     2.6671    -2.1051 H       
  30 H30           -4.3478     3.9493    -1.2042 H       
  31 H31           -2.5687     3.8917    -1.2137 H       
  32 H32           -4.7936     0.9263     0.9220 H       
  33 H33           -5.6470     2.2175     0.0430 H       
  34 H34           -4.8028     0.9354    -0.8579 H       
  35 H35           -2.5558     3.8791     1.2847 H       
  36 H36           -4.3348     3.9366     1.2942 H       
  37 H37           -3.4814     2.6454     2.1732 H       
@<TRIPOS>BOND
   1    1    2 1
   2    1    9 1
   3    1   10 am
   4    2    3 2
   5    2   23 1
   6    3    4 1
   7    3   13 1
   8    4    5 ar
   9    4    9 ar
  10    5    6 ar
  11    5   24 1
  12    6    7 ar
  13    6   17 1
  14    7    8 ar
  15    7   16 1
  16    8    9 ar
  17    8   25 1
  18   10   11 2
  19   10   12 1
  20   12   19 1
  21   13   14 2
  22   13   15 1
  23   15   18 1
  24   18   26 1
  25   18   27 1
  26   18   28 1
  27   19   20 1
  28   19   22 1
  29   19   21 1
  30   20   29 1
  31   20   30 1
  32   20   31 1
  33   21   32 1
  34   21   33 1
  35   21   34 1
  36   22   35 1
  37   22   36 1
  38   22   37 1

#	End of record

