#	Name: ASD01940471
#	Creating user name:	WinNT
#	Creation time:	15. 06. 2019 20:12

#	Modifying user name:	WinNT
#	Modification time:	15. 06. 2019 20:12

#	Program:	/corina/corina34_cracker 3.40 0067  02.08.2006

@<TRIPOS>MOLECULE
ASD01940471
  57   59    0    0    0
SMALL
NO_CHARGES


@<TRIPOS>ATOM
   1 N1             0.7287     3.8458    -2.0991 N.am    
   2 N2             0.7103     2.9532    -3.1756 N.2     
   3 C3             1.5124     1.9551    -2.9424 C.2     
   4 C4             2.1206     2.1672    -1.6319 C.ar    
   5 C5             3.0461     1.4450    -0.8612 C.ar    
   6 C6             3.4294     1.9436     0.3910 C.ar    
   7 C7             2.8888     3.1515     0.8597 C.ar    
   8 C8             1.9918     3.8493     0.1101 C.ar    
   9 C9             1.5936     3.3742    -1.1403 C.ar    
  10 C10            0.0174     4.9877    -2.0175 C.2     
  11 O11            0.1099     5.6916    -1.0321 O.2     
  12 O12           -0.7955     5.3478    -3.0279 O.3     
  13 C13            4.3968     1.2022     1.2135 C.2     
  14 O14            4.8133     0.1237     0.8379 O.2     
  15 O15            4.8218     1.7185     2.3840 O.3     
  16 N16            3.5725     0.2553    -1.3322 N.pl3   
  17 C17            2.8408    -0.9306    -1.2095 C.ar    
  18 C18            3.4058    -2.1417    -1.5965 C.ar    
  19 C19            2.6795    -3.3115    -1.4730 C.ar    
  20 C20            1.3926    -3.2776    -0.9654 C.ar    
  21 C21            0.8293    -2.0748    -0.5801 C.ar    
  22 C22            1.5515    -0.9025    -0.6959 C.ar    
  23 I23            0.2950    -5.0525    -0.7806 I       
  24 F24            4.6620    -2.1745    -2.0925 F       
  25 C25           -1.5309     6.5900    -2.8715 C.3     
  26 C26           -0.5456     7.7484    -2.7036 C.3     
  27 C27           -2.3948     6.8308    -4.1111 C.3     
  28 C28           -2.4274     6.4997    -1.6349 C.3     
  29 C29            5.6483     0.8656     3.2193 C.3     
  30 C30            6.9153     0.4765     2.4550 C.3     
  31 C31            6.0328     1.6187     4.4943 C.3     
  32 C32            4.8675    -0.3973     3.5888 C.3     
  33 H33            1.6953     1.1187    -3.6007 H       
  34 H34            3.1875     3.5312     1.8257 H       
  35 H35            1.5853     4.7766     0.4858 H       
  36 H36            4.4490     0.2436    -1.7476 H       
  37 H37            3.1165    -4.2523    -1.7733 H       
  38 H38           -0.1755    -2.0522    -0.1847 H       
  39 H39            1.1117     0.0355    -0.3908 H       
  40 H40            0.0930     7.8127    -3.5846 H       
  41 H41           -1.0977     8.6809    -2.5862 H       
  42 H42            0.0698     7.5769    -1.8205 H       
  43 H43           -3.0967     6.0055    -4.2307 H       
  44 H44           -2.9469     7.7632    -3.9937 H       
  45 H45           -1.7561     6.8951    -4.9921 H       
  46 H46           -1.8119     6.3282    -0.7518 H       
  47 H47           -2.9795     7.4322    -1.5175 H       
  48 H48           -3.1293     5.6744    -1.7545 H       
  49 H49            7.4110     1.3765     2.0913 H       
  50 H50            7.5882    -0.0658     3.1193 H       
  51 H51            6.6493    -0.1586     1.6100 H       
  52 H52            5.1302     1.8959     5.0388 H       
  53 H53            6.6532     0.9784     5.1214 H       
  54 H54            6.5891     2.5184     4.2311 H       
  55 H55            4.5935    -0.9338     2.6804 H       
  56 H56            5.4879    -1.0376     4.2159 H       
  57 H57            3.9648    -0.1201     4.1333 H       
@<TRIPOS>BOND
   1    1    2 1
   2    1    9 1
   3    1   10 am
   4    2    3 2
   5    3    4 1
   6    3   33 1
   7    4    5 ar
   8    4    9 ar
   9    5    6 ar
  10    5   16 1
  11    6    7 ar
  12    6   13 1
  13    7    8 ar
  14    7   34 1
  15    8    9 ar
  16    8   35 1
  17   10   11 2
  18   10   12 1
  19   12   25 1
  20   13   14 2
  21   13   15 1
  22   15   29 1
  23   16   17 1
  24   16   36 1
  25   17   18 ar
  26   17   22 ar
  27   18   19 ar
  28   18   24 1
  29   19   20 ar
  30   19   37 1
  31   20   21 ar
  32   20   23 1
  33   21   22 ar
  34   21   38 1
  35   22   39 1
  36   25   26 1
  37   25   28 1
  38   25   27 1
  39   26   40 1
  40   26   41 1
  41   26   42 1
  42   27   43 1
  43   27   44 1
  44   27   45 1
  45   28   46 1
  46   28   47 1
  47   28   48 1
  48   29   30 1
  49   29   32 1
  50   29   31 1
  51   30   49 1
  52   30   50 1
  53   30   51 1
  54   31   52 1
  55   31   53 1
  56   31   54 1
  57   32   55 1
  58   32   56 1
  59   32   57 1

#	End of record

