#	Name: ASD01880264
#	Creating user name:	WinNT
#	Creation time:	15. 06. 2019 19:40

#	Modifying user name:	WinNT
#	Modification time:	15. 06. 2019 19:40

#	Program:	/corina/corina34_cracker 3.40 0067  02.08.2006

@<TRIPOS>MOLECULE
ASD01880264
  45   47    0    0    0
SMALL
NO_CHARGES


@<TRIPOS>ATOM
   1 C1            -0.0167     1.3790     0.0096 C.ar    
   2 C2             0.0021    -0.0041     0.0020 C.ar    
   3 C3             1.2063    -0.6845    -0.0131 C.ar    
   4 C4             2.3965     0.0142    -0.0202 C.ar    
   5 C5             2.3836     1.4075    -0.0126 C.ar    
   6 C6             1.1676     2.0878     0.0021 C.ar    
   7 C7            -1.2943    -0.7725     0.0107 C.3     
   8 C8             3.6601     2.1642    -0.0198 C.2     
   9 C9             3.9861     2.9485    -1.0881 C.2     
  10 N10            5.1503     3.6433    -1.1032 N.am    
  11 C11            6.0085     3.5758    -0.0685 C.2     
  12 C12            5.7089     2.7784     1.0504 C.2     
  13 C13            4.5401     2.0805     1.0810 C.2     
  14 O14            7.0513     4.2090    -0.1016 O.2     
  15 C15            5.4788     4.4782    -2.2613 C.3     
  16 C16            4.9401     5.8692    -2.0467 C.ar    
  17 C17            5.7228     6.8253    -1.4268 C.ar    
  18 C18            5.2293     8.1012    -1.2297 C.ar    
  19 C19            3.9516     8.4214    -1.6530 C.ar    
  20 C20            3.1688     7.4641    -2.2734 C.ar    
  21 C21            3.6655     6.1902    -2.4750 C.ar    
  22 Cl22           3.3309    10.0236    -1.4054 Cl      
  23 C23           -1.7473    -1.0248    -1.4287 C.3     
  24 C24           -3.0634    -1.8049    -1.4198 C.3     
  25 O25           -3.4865    -2.0406    -2.7643 O.3     
  26 H26           -0.9598     1.9053     0.0169 H       
  27 H27            1.2152    -1.7644    -0.0190 H       
  28 H28            3.3362    -0.5181    -0.0313 H       
  29 H29            1.1518     3.1677     0.0077 H       
  30 H30           -1.1480    -1.7261     0.5180 H       
  31 H31           -2.0555    -0.1949     0.5353 H       
  32 H32            3.3113     3.0161    -1.9286 H       
  33 H33            6.3978     2.7237     1.8804 H       
  34 H34            4.2939     1.4632     1.9323 H       
  35 H35            6.5612     4.5224    -2.3821 H       
  36 H36            5.0304     4.0492    -3.1574 H       
  37 H37            6.7200     6.5751    -1.0961 H       
  38 H38            5.8408     8.8479    -0.7451 H       
  39 H39            2.1713     7.7135    -2.6041 H       
  40 H40            3.0544     5.4428    -2.9592 H       
  41 H41           -1.8936    -0.0712    -1.9360 H       
  42 H42           -0.9861    -1.6023    -1.9532 H       
  43 H43           -2.9171    -2.7585    -0.9125 H       
  44 H44           -3.8246    -1.2274    -0.8953 H       
  45 H45           -4.3165    -2.5317    -2.8350 H       
@<TRIPOS>BOND
   1    1    2 ar
   2    1    6 ar
   3    1   26 1
   4    2    3 ar
   5    2    7 1
   6    3    4 ar
   7    3   27 1
   8    4    5 ar
   9    4   28 1
  10    5    6 ar
  11    5    8 1
  12    6   29 1
  13    7   23 1
  14    7   30 1
  15    7   31 1
  16    8    9 2
  17    8   13 1
  18    9   10 1
  19    9   32 1
  20   10   11 am
  21   10   15 1
  22   11   12 1
  23   11   14 2
  24   12   13 2
  25   12   33 1
  26   13   34 1
  27   15   16 1
  28   15   35 1
  29   15   36 1
  30   16   17 ar
  31   16   21 ar
  32   17   18 ar
  33   17   37 1
  34   18   19 ar
  35   18   38 1
  36   19   20 ar
  37   19   22 1
  38   20   21 ar
  39   20   39 1
  40   21   40 1
  41   23   24 1
  42   23   41 1
  43   23   42 1
  44   24   25 1
  45   24   43 1
  46   24   44 1
  47   25   45 1

#	End of record

