#	Name: ASD01100089
#	Creating user name:	WinNT
#	Creation time:	15. 06. 2019 18:58

#	Modifying user name:	WinNT
#	Modification time:	15. 06. 2019 18:58

#	Program:	/corina/corina34_cracker 3.40 0067  02.08.2006

@<TRIPOS>MOLECULE
ASD01100089
  19   19    0    0    0
SMALL
NO_CHARGES


@<TRIPOS>ATOM
   1 C1            -0.0167     1.3781     0.0096 C.ar    
   2 C2             0.0021    -0.0041     0.0020 C.ar    
   3 C3             1.2084    -0.6789    -0.0132 C.ar    
   4 C4             2.3960     0.0285    -0.0212 C.ar    
   5 C5             2.3773     1.4107    -0.0145 C.ar    
   6 C6             1.1709     2.0855     0.0021 C.ar    
   7 C7            -1.3319     2.1138     0.0199 C.3     
   8 C8            -1.7635     2.3513     1.4440 C.2     
   9 N9            -2.9188     2.9969     1.6993 N.am    
  10 O10           -1.0713     1.9616     2.3605 O.2     
  11 H11           -0.9258    -0.5567     0.0083 H       
  12 H12            1.2231    -1.7588    -0.0184 H       
  13 H13            3.3385    -0.4987    -0.0324 H       
  14 H14            3.3051     1.9634    -0.0205 H       
  15 H15            1.1563     3.1654     0.0077 H       
  16 H16           -1.2169     3.0707    -0.4893 H       
  17 H17           -2.0859     1.5173    -0.4937 H       
  18 H18           -3.4724     3.3086     0.9663 H       
  19 H19           -3.1966     3.1497     2.6160 H       
@<TRIPOS>BOND
   1    1    2 ar
   2    1    6 ar
   3    1    7 1
   4    2    3 ar
   5    2   11 1
   6    3    4 ar
   7    3   12 1
   8    4    5 ar
   9    4   13 1
  10    5    6 ar
  11    5   14 1
  12    6   15 1
  13    7    8 1
  14    7   16 1
  15    7   17 1
  16    8    9 am
  17    8   10 2
  18    9   18 1
  19    9   19 1

#	End of record

