#	Name: ASD01880425
#	Creating user name:	WinNT
#	Creation time:	15. 06. 2019 19:40

#	Modifying user name:	WinNT
#	Modification time:	15. 06. 2019 19:40

#	Program:	/corina/corina34_cracker 3.40 0067  02.08.2006

@<TRIPOS>MOLECULE
ASD01880425
  20   20    0    0    0
SMALL
NO_CHARGES


@<TRIPOS>ATOM
   1 O1            -0.0161     1.3381     0.0094 O.3     
   2 C2             0.0021    -0.0041     0.0020 C.2     
   3 O3             1.0565    -0.5939    -0.0112 O.2     
   4 C4            -1.2926    -0.7753     0.0102 C.3     
   5 C5            -1.8454    -0.8287     1.4359 C.3     
   6 C6            -3.1639    -1.5732     1.6549 C.3     
   7 C7            -1.8493    -2.1862     2.1417 C.3     
   8 C8            -1.5881     0.3937     2.2790 C.2     
   9 O9            -2.4094     0.7523     3.0894 O.2     
  10 O10           -0.4467     1.0840     2.1295 O.3     
  11 N11           -1.0519    -2.1414    -0.4731 N.3     
  12 H12            0.8394     1.7888     0.0037 H       
  13 H13           -2.0139    -0.2813    -0.6408 H       
  14 H14           -3.8452    -1.1791     2.4091 H       
  15 H15           -3.6376    -2.0250     0.7833 H       
  16 H16           -1.4581    -3.0412     1.5903 H       
  17 H17           -1.6657    -2.1954     3.2160 H       
  18 H18           -0.3266     1.8609     2.6926 H       
  19 H19           -0.3861    -2.6207     0.1143 H       
  20 H20           -1.9154    -2.6594    -0.5382 H       
@<TRIPOS>BOND
   1    1    2 1
   2    1   12 1
   3    2    3 2
   4    2    4 1
   5    4    5 1
   6    4   11 1
   7    4   13 1
   8    5    6 1
   9    5    8 1
  10    5    7 1
  11    6    7 1
  12    6   14 1
  13    6   15 1
  14    7   16 1
  15    7   17 1
  16    8    9 2
  17    8   10 1
  18   10   18 1
  19   11   19 1
  20   11   20 1

#	End of record

