#	Name: ASD05430269
#	Creating user name:	WinNT
#	Creation time:	15. 06. 2019 21:00

#	Modifying user name:	WinNT
#	Modification time:	15. 06. 2019 21:00

#	Program:	/corina/corina34_cracker 3.40 0067  02.08.2006

@<TRIPOS>MOLECULE
ASD05430269
  65   71    0    0    0
SMALL
NO_CHARGES


@<TRIPOS>ATOM
   1 C1             0.0677     1.1597     0.4344 C.ar    
   2 C2             0.0204    -0.0145    -0.3185 C.ar    
   3 C3             1.1567    -0.4755    -0.9701 C.ar    
   4 C4             2.3385     0.2252    -0.8765 C.ar    
   5 C5             2.3922     1.4016    -0.1241 C.ar    
   6 C6             1.2413     1.8646     0.5333 C.ar    
   7 C7             4.8650    -0.0114     0.2057 C.3     
   8 C8             4.8254     1.4947     0.0667 C.2     
   9 C9             3.6531     2.1536    -0.0208 C.2     
  10 C10            6.2076    -0.4320     0.8108 C.3     
  11 C11            6.8889     0.5990     1.7177 C.3     
  12 N12            7.0853     1.8356     0.9582 N.pl3   
  13 C13            6.1058     2.2175     0.0304 C.2     
  14 N14           -1.1791    -0.7318    -0.4169 N.pl3   
  15 C15           -1.7679    -1.1809    -1.5708 C.2     
  16 C16           -2.8984    -1.8171    -1.2097 C.2     
  17 N17           -3.0021    -1.7611     0.1264 N.2     
  18 C18           -1.9755    -1.1188     0.6133 C.2     
  19 C19           -3.8779    -2.4779    -2.1452 C.3     
  20 C20            8.2560     2.6873     1.1678 C.3     
  21 C21            8.7430     3.2020    -0.1914 C.3     
  22 N22            7.6060     3.7353    -0.9456 N.pl3   
  23 N23            6.3403     3.1477    -0.8419 N.2     
  24 C24            7.8811     3.8541     2.0448 C.ar    
  25 C25            8.7558     4.2935     3.0209 C.ar    
  26 C26            7.1930     5.9950     3.6544 C.ar    
  27 C27            6.3204     5.5582     2.6720 C.ar    
  28 C28            6.6651     4.4878     1.8687 C.ar    
  29 C29            8.4130     5.3631     3.8260 C.ar    
  30 F30            6.8573     7.0416     4.4400 F       
  31 C31            6.3832    -1.9085     1.1732 C.3     
  32 C32            7.1131    -1.3262    -0.0388 C.3     
  33 C33            7.7963     4.8967    -1.8181 C.3     
  34 C34            0.6226     2.9183     1.4128 C.3     
  35 C35           -0.6806     2.1396     1.2990 C.3     
  36 H36            1.1137    -1.3850    -1.5509 H       
  37 H37            3.2220    -0.1339    -1.3832 H       
  38 H38            4.0545    -0.3377     0.8573 H       
  39 H39            4.7492    -0.4702    -0.7763 H       
  40 H40            3.6389     3.2335    -0.0150 H       
  41 H41            6.2575     0.7981     2.5836 H       
  42 H42            7.8544     0.2149     2.0470 H       
  43 H43           -1.3965    -1.0492    -2.5764 H       
  44 H44           -1.7935    -0.9215     1.6594 H       
  45 H45           -3.5928    -3.5195    -2.2933 H       
  46 H46           -4.8783    -2.4327    -1.7149 H       
  47 H47           -3.8709    -1.9595    -3.1040 H       
  48 H48            9.0476     2.1092     1.6444 H       
  49 H49            9.4800     3.9904    -0.0388 H       
  50 H50            9.1969     2.3827    -0.7490 H       
  51 H51            9.7074     3.8005     3.1546 H       
  52 H52            5.3707     6.0535     2.5339 H       
  53 H53            5.9844     4.1464     1.1029 H       
  54 H54            9.0962     5.7058     4.5891 H       
  55 H55            6.9794    -2.1428     2.0551 H       
  56 H56            5.5438    -2.5770     0.9818 H       
  57 H57            6.7540    -1.6117    -1.0275 H       
  58 H58            8.1896    -1.1775     0.0457 H       
  59 H59            8.0696     4.5592    -2.8178 H       
  60 H60            6.8699     5.4689    -1.8685 H       
  61 H61            8.5908     5.5261    -1.4172 H       
  62 H62            1.0343     2.9414     2.4218 H       
  63 H63            0.5803     3.9039     0.9493 H       
  64 H64           -1.4670     2.6795     0.7716 H       
  65 H65           -1.0186     1.7140     2.2438 H       
@<TRIPOS>BOND
   1    1    2 ar
   2    1    6 ar
   3    1   35 1
   4    2    3 ar
   5    2   14 1
   6    3    4 ar
   7    3   36 1
   8    4    5 ar
   9    4   37 1
  10    5    6 ar
  11    5    9 1
  12    6   34 1
  13    7    8 1
  14    7   10 1
  15    7   38 1
  16    7   39 1
  17    8    9 2
  18    8   13 1
  19    9   40 1
  20   10   11 1
  21   10   31 1
  22   10   32 1
  23   11   12 1
  24   11   41 1
  25   11   42 1
  26   12   13 1
  27   12   20 1
  28   13   23 2
  29   14   15 1
  30   14   18 1
  31   15   16 2
  32   15   43 1
  33   16   17 1
  34   16   19 1
  35   17   18 2
  36   18   44 1
  37   19   45 1
  38   19   46 1
  39   19   47 1
  40   20   21 1
  41   20   24 1
  42   20   48 1
  43   21   22 1
  44   21   49 1
  45   21   50 1
  46   22   23 1
  47   22   33 1
  48   24   25 ar
  49   24   28 ar
  50   25   29 ar
  51   25   51 1
  52   26   27 ar
  53   26   30 1
  54   26   29 ar
  55   27   28 ar
  56   27   52 1
  57   28   53 1
  58   29   54 1
  59   31   32 1
  60   31   55 1
  61   31   56 1
  62   32   57 1
  63   32   58 1
  64   33   59 1
  65   33   60 1
  66   33   61 1
  67   34   35 1
  68   34   62 1
  69   34   63 1
  70   35   64 1
  71   35   65 1

#	End of record

