#	Name: ASD02670016
#	Creating user name:	WinNT
#	Creation time:	15. 06. 2019 20:26

#	Modifying user name:	WinNT
#	Modification time:	15. 06. 2019 20:26

#	Program:	/corina/corina34_cracker 3.40 0067  02.08.2006

@<TRIPOS>MOLECULE
ASD02670016
 117  121    0    0    0
SMALL
NO_CHARGES


@<TRIPOS>ATOM
   1 O1            -0.3847     0.5304     0.7579 O.3     
   2 O2            -1.3861     3.3126     0.4843 O.3     
   3 O3            -1.8891     5.9048     0.1820 O.3     
   4 O4             2.6586    -0.0219     2.5939 O.3     
   5 O5             1.0410     2.1197     6.1918 O.3     
   6 O6            -0.1806     3.8298     7.4449 O.3     
   7 O7            -0.1771    -0.7776    -1.0112 O.2     
   8 O8             1.3127     4.2742     4.3614 O.2     
   9 O9            -2.6216     8.0117     7.9499 O.3     
  10 O10           -3.1568     9.2941     5.7595 O.3     
  11 O11            1.0750     6.6929     3.5499 O.2     
  12 O12           -2.4054     8.2247     1.7520 O.2     
  13 N13            2.1219     9.1572     0.9654 N.3     
  14 N14            3.7441    11.2982     0.0220 N.3     
  15 N15            1.3583     8.4934     1.8831 N.pl3   
  16 N16           -2.3986     9.9048     3.1372 N.am    
  17 C17            0.4329     2.2795    -0.7140 C.3     
  18 C18           -0.0881     3.5603    -0.0741 C.3     
  19 C19            0.8196     1.2371     0.3396 C.3     
  20 C20           -0.1764     4.7255    -1.0583 C.3     
  21 C21            1.5182     1.8352     1.5496 C.3     
  22 C22           -1.5952     5.3171    -1.0804 C.3     
  23 C23            1.6092     2.5277    -1.6521 C.3     
  24 C24            1.5311     0.8443     2.7241 C.3     
  25 C25           -1.7058     6.3466    -2.1979 C.3     
  26 C26            0.8083     5.8139    -0.6000 C.3     
  27 C27            2.9771     2.1713     1.2217 C.3     
  28 C28           -2.4673     5.7066    -3.3679 C.3     
  29 C29            1.6439     1.6258     4.0086 C.2     
  30 C30           -2.4152     7.6004    -1.8163 C.2     
  31 C31           -0.7679    -0.5162     0.0098 C.2     
  32 C32            0.9390     1.3242     5.0740 C.2     
  33 C33           -2.1391     8.3551    -0.7638 C.2     
  34 C34            2.4227    -1.3555     3.0498 C.3     
  35 C35            0.0675     3.1476     6.2017 C.3     
  36 C36           -1.9350    -1.3652     0.4435 C.3     
  37 C37           -0.1981     5.4187     5.7969 C.ar    
  38 C38            0.5407     4.3037     5.2907 C.2     
  39 C39           -0.6378     5.0740     7.0876 C.ar    
  40 C40           -0.5382     6.7253     5.2433 C.ar    
  41 C41           -2.8911     9.5801    -0.5134 C.2     
  42 C42           -1.2686     2.6212     5.6590 C.3     
  43 C43           -1.4989     7.5486     5.8812 C.ar    
  44 C44           -1.4282     5.9945     7.7636 C.ar    
  45 C45           -1.8472     7.1873     7.2043 C.ar    
  46 C46            0.1071     7.2491     4.0416 C.2     
  47 C47            3.4998     9.3236     1.4485 C.3     
  48 C48            1.5257    10.4566     0.6252 C.3     
  49 C49           -0.4402     8.4611     3.4307 C.2     
  50 C50            4.3404     9.9988     0.3622 C.3     
  51 C51            2.3663    11.1319    -0.4610 C.3     
  52 C52           -1.6975     9.0190     3.9460 C.2     
  53 C53           -2.1057     8.6399     5.1986 C.2     
  54 C54           -3.0681    10.1160     0.7156 C.2     
  55 C55           -1.8509     5.6856     9.1772 C.3     
  56 C56            0.2664     9.0844     2.4041 C.2     
  57 C57           -2.6224     9.4201     1.8985 C.2     
  58 C58            4.5654    12.0121    -0.9648 C.3     
  59 C59           -3.7497    11.4607     0.8314 C.3     
  60 H60           -0.3950     1.8472    -1.3106 H       
  61 H61            0.5765     3.8658     0.7430 H       
  62 H62            1.4938     0.5118    -0.1330 H       
  63 H63            0.0738     4.4277    -2.0723 H       
  64 H64            1.0071     2.7366     1.8769 H       
  65 H65           -2.3089     4.5103    -1.2805 H       
  66 H66            2.3853     3.0808    -1.1230 H       
  67 H67            2.0108     1.5730    -1.9918 H       
  68 H68            1.2723     3.1068    -2.5119 H       
  69 H69            0.6178     0.2594     2.7296 H       
  70 H70           -0.7108     6.6083    -2.5586 H       
  71 H71            1.8197     5.4076    -0.5889 H       
  72 H72            0.7633     6.6578    -1.2884 H       
  73 H73            0.5400     6.1479     0.4023 H       
  74 H74            3.0083     2.9734     0.4842 H       
  75 H75            3.4889     2.4920     2.1291 H       
  76 H76            3.4718     1.2876     0.8186 H       
  77 H77           -1.7845     4.0836     0.9108 H       
  78 H78           -3.4612     5.4079    -3.0345 H       
  79 H79           -2.5579     6.4276    -4.1802 H       
  80 H80           -1.9232     4.8299    -3.7193 H       
  81 H81            2.3447     2.4577     4.0598 H       
  82 H82           -2.7709     6.2978     0.2372 H       
  83 H83           -3.2415     7.9457    -2.4585 H       
  84 H84            0.3009     0.4521     5.0985 H       
  85 H85           -1.3302     8.0807    -0.0897 H       
  86 H86            2.2391    -1.3451     4.1242 H       
  87 H87            1.5534    -1.7666     2.5366 H       
  88 H88            3.2958    -1.9723     2.8365 H       
  89 H89           -2.8552    -0.9603     0.0224 H       
  90 H90           -1.7925    -2.3865     0.0904 H       
  91 H91           -2.0016    -1.3629     1.5315 H       
  92 H92           -3.3334    10.1004    -1.3675 H       
  93 H93           -1.6086     1.7891     6.2756 H       
  94 H94           -2.0107     3.4191     5.6843 H       
  95 H95           -1.1351     2.2815     4.6319 H       
  96 H96            3.4985     9.9434     2.3451 H       
  97 H97            3.9238     8.3469     1.6818 H       
  98 H98            0.5104    10.3059     0.2583 H       
  99 H99            1.5019    11.0893     1.5125 H       
 100 H100           4.3642     9.3662    -0.5250 H       
 101 H101           5.3557    10.1495     0.7291 H       
 102 H102           1.9423    12.1085    -0.6943 H       
 103 H103           2.3676    10.5121    -1.3577 H       
 104 H104           1.6026     7.5962     2.1594 H       
 105 H105          -0.0616    10.0415     2.0264 H       
 106 H106          -1.1078     6.0764     9.8723 H       
 107 H107          -2.8160     6.1508     9.3777 H       
 108 H108          -1.9345     4.6062     9.3037 H       
 109 H109          -2.6994    10.7825     3.4409 H       
 110 H110           4.6431    11.4147    -1.8732 H       
 111 H111           4.1014    12.9703    -1.1987 H       
 112 H112           5.5611    12.1811    -0.5548 H       
 113 H113          -4.0142    11.8208    -0.1628 H       
 114 H114          -4.6527    11.3597     1.4334 H       
 115 H115          -3.0735    12.1710     1.3071 H       
 116 H116          -3.5701     7.8440     7.8647 H       
 117 H117          -3.5009    10.0200     5.2213 H       
@<TRIPOS>BOND
   1    1   31 1
   2    1   19 1
   3    2   77 1
   4    2   18 1
   5    3   82 1
   6    3   22 1
   7    4   34 1
   8    4   24 1
   9    5   32 1
  10    5   35 1
  11    6   35 1
  12    6   39 1
  13    7   31 2
  14    8   38 2
  15    9   45 1
  16    9  116 1
  17   10   53 1
  18   10  117 1
  19   11   46 2
  20   12   57 2
  21   13   15 1
  22   13   47 1
  23   13   48 1
  24   14   50 1
  25   14   51 1
  26   14   58 1
  27   15   56 1
  28   15  104 1
  29   16   52 1
  30   16   57 am
  31   16  109 1
  32   17   18 1
  33   17   23 1
  34   17   60 1
  35   17   19 1
  36   18   20 1
  37   18   61 1
  38   19   62 1
  39   19   21 1
  40   20   22 1
  41   20   26 1
  42   20   63 1
  43   21   27 1
  44   21   64 1
  45   21   24 1
  46   22   25 1
  47   22   65 1
  48   23   66 1
  49   23   67 1
  50   23   68 1
  51   24   29 1
  52   24   69 1
  53   25   28 1
  54   25   30 1
  55   25   70 1
  56   26   71 1
  57   26   72 1
  58   26   73 1
  59   27   74 1
  60   27   75 1
  61   27   76 1
  62   28   78 1
  63   28   79 1
  64   28   80 1
  65   29   32 2
  66   29   81 1
  67   30   33 2
  68   30   83 1
  69   31   36 1
  70   32   84 1
  71   33   41 1
  72   33   85 1
  73   34   86 1
  74   34   87 1
  75   34   88 1
  76   35   38 1
  77   35   42 1
  78   36   89 1
  79   36   90 1
  80   36   91 1
  81   37   38 1
  82   37   39 ar
  83   37   40 ar
  84   39   44 ar
  85   40   43 ar
  86   40   46 1
  87   41   54 2
  88   41   92 1
  89   42   93 1
  90   42   94 1
  91   42   95 1
  92   43   45 ar
  93   43   53 1
  94   44   45 ar
  95   44   55 1
  96   46   49 1
  97   47   50 1
  98   47   96 1
  99   47   97 1
 100   48   51 1
 101   48   98 1
 102   48   99 1
 103   49   52 1
 104   49   56 2
 105   50  100 1
 106   50  101 1
 107   51  102 1
 108   51  103 1
 109   52   53 2
 110   54   57 1
 111   54   59 1
 112   55  106 1
 113   55  107 1
 114   55  108 1
 115   56  105 1
 116   58  110 1
 117   58  111 1
 118   58  112 1
 119   59  113 1
 120   59  114 1
 121   59  115 1

#	End of record

