#	Name: ASD03092075
#	Creating user name:	WinNT
#	Creation time:	15. 06. 2019 20:31

#	Modifying user name:	WinNT
#	Modification time:	15. 06. 2019 20:31

#	Program:	/corina/corina34_cracker 3.40 0067  02.08.2006

@<TRIPOS>MOLECULE
ASD03092075
  43   45    0    0    0
SMALL
NO_CHARGES


@<TRIPOS>ATOM
   1 N1             0.3601     0.9989    -0.2183 N.pl3   
   2 C2             0.0826    -0.3075     0.0558 C.2     
   3 C3            -1.2760    -0.4484     0.0447 C.2     
   4 C4            -1.8338     0.8036    -0.2432 C.2     
   5 N5            -0.8574     1.6686    -0.3942 N.2     
   6 N6            -3.2012     1.0865    -0.3462 N.pl3   
   7 C7            -3.6308     2.4048    -0.5265 C.ar    
   8 C8            -4.8149     2.6636    -1.2041 C.ar    
   9 C9            -5.2379     3.9687    -1.3807 C.ar    
  10 C10           -4.4798     5.0169    -0.8813 C.ar    
  11 C11           -2.8765     3.4571    -0.0229 C.ar    
  12 C12            1.0713    -1.3763     0.3173 C.ar    
  13 C13            1.6944     1.5971    -0.3069 C.3     
  14 C14            2.3634    -1.0685     0.7574 C.ar    
  15 C15            3.2536    -2.0965     0.9890 C.ar    
  16 N16            2.9007    -3.3537     0.8005 N.ar    
  17 C17            1.6930    -3.6874     0.3864 C.ar    
  18 C18            0.7386    -2.7238     0.1368 C.ar    
  19 C19            1.3503    -5.1416     0.1892 C.3     
  20 O20            1.7089     2.5772    -1.3467 O.3     
  21 C21           -3.2991     4.7593    -0.2061 C.ar    
  22 F22           -6.3895     4.2221    -2.0401 F       
  23 C23            2.0446     2.2622     1.0258 C.3     
  24 C24            3.4842     2.7779     0.9756 C.3     
  25 F25           -4.8938     6.2912    -1.0542 F       
  26 H26           -1.8225    -1.3621     0.2256 H       
  27 H27           -3.8505     0.3678    -0.2925 H       
  28 H28           -5.4048     1.8469    -1.5932 H       
  29 H29           -1.9576     3.2572     0.5082 H       
  30 H30            2.4266     0.8208    -0.5290 H       
  31 H31            2.6594    -0.0416     0.9132 H       
  32 H32            4.2532    -1.8690     1.3289 H       
  33 H33           -0.2480    -3.0042    -0.2016 H       
  34 H34            0.9490    -5.5494     1.1170 H       
  35 H35            0.6054    -5.2355    -0.6011 H       
  36 H36            2.2485    -5.6918    -0.0910 H       
  37 H37            1.0803     3.3001    -1.2147 H       
  38 H38           -2.7099     5.5772     0.1814 H       
  39 H39            1.3660     3.0962     1.2050 H       
  40 H40            1.9471     1.5347     1.8316 H       
  41 H41            4.1628     1.9439     0.7964 H       
  42 H42            3.5818     3.5053     0.1698 H       
  43 H43            3.7337     3.2517     1.9250 H       
@<TRIPOS>BOND
   1    1    2 1
   2    1   13 1
   3    1    5 1
   4    2    3 2
   5    2   12 1
   6    3    4 1
   7    3   26 1
   8    4    5 2
   9    4    6 1
  10    6    7 1
  11    6   27 1
  12    7    8 ar
  13    7   11 ar
  14    8    9 ar
  15    8   28 1
  16    9   10 ar
  17    9   22 1
  18   10   21 ar
  19   10   25 1
  20   11   21 ar
  21   11   29 1
  22   12   14 ar
  23   12   18 ar
  24   13   20 1
  25   13   23 1
  26   13   30 1
  27   14   15 ar
  28   14   31 1
  29   15   16 ar
  30   15   32 1
  31   16   17 ar
  32   17   18 ar
  33   17   19 1
  34   18   33 1
  35   19   34 1
  36   19   35 1
  37   19   36 1
  38   20   37 1
  39   21   38 1
  40   23   24 1
  41   23   39 1
  42   23   40 1
  43   24   41 1
  44   24   42 1
  45   24   43 1

#	End of record

