#	Name: ASD02030540
#	Creating user name:	WinNT
#	Creation time:	15. 06. 2019 20:15

#	Modifying user name:	WinNT
#	Modification time:	15. 06. 2019 20:15

#	Program:	/corina/corina34_cracker 3.40 0067  02.08.2006

@<TRIPOS>MOLECULE
ASD02030540
  64   68    0    0    0
SMALL
NO_CHARGES


@<TRIPOS>ATOM
   1 N1            -1.4754     1.0222    -2.4002 N.am    
   2 C2            -1.4417    -0.4247    -2.1449 C.3     
   3 C3            -1.8165    -0.6725    -0.6785 C.3     
   4 N4            -3.0473     0.0715    -0.3762 N.am    
   5 C5            -3.0811     1.5185    -0.6315 C.3     
   6 C6            -2.7043     1.7673    -2.0926 C.3     
   7 C7            -0.3968     1.6556    -2.9020 C.2     
   8 C8             0.8731     0.9211    -3.0846 C.2     
   9 N9             2.0242     1.4442    -3.4481 N.2     
  10 N10            1.0568    -0.3996    -2.9026 N.2     
  11 C11            2.3132    -0.6571    -3.1629 C.2     
  12 N12            2.9058     0.5060    -3.5027 N.pl3   
  13 O13           -0.4681     2.8308    -3.2046 O.2     
  14 C14           -4.1260    -0.5618     0.1257 C.2     
  15 C15           -4.0764    -2.0205     0.3810 C.ar    
  16 O16           -5.1392     0.0635     0.3687 O.2     
  17 C17           -2.4692     3.2627    -2.3148 C.3     
  18 C18           -3.8328     1.2804    -3.0039 C.3     
  19 C19            4.2524     0.6668    -3.8559 C.ar    
  20 C20            4.7393     1.9241    -4.1860 C.ar    
  21 C21            6.0684     2.0794    -4.5335 C.ar    
  22 C22            6.9122     0.9828    -4.5526 C.ar    
  23 C23            6.4289    -0.2705    -4.2241 C.ar    
  24 C24            5.1035    -0.4305    -3.8707 C.ar    
  25 N25           -2.9087    -2.6078     0.6091 N.ar    
  26 C26           -2.8218    -3.9077     0.8413 C.ar    
  27 C27           -3.9668    -4.7076     0.8530 C.ar    
  28 C28           -5.2001    -4.1264     0.6189 C.ar    
  29 C29           -5.2565    -2.7600     0.3849 C.ar    
  30 C30           -1.4948    -4.5217     1.0913 C.2     
  31 C31           -1.2337    -5.8557     1.2186 C.2     
  32 N32            0.0884    -5.9932     1.4366 N.pl3   
  33 N33            0.6663    -4.7181     1.4458 N.2     
  34 C34           -0.2728    -3.8348     1.2345 C.2     
  35 Cl35           6.6791     3.6511    -4.9466 Cl      
  36 C36           -0.0837    -2.3413     1.1655 C.3     
  37 C37            0.7992    -7.2593     1.6315 C.3     
  38 H38           -2.1572    -0.9277    -2.7955 H       
  39 H39           -0.4388    -0.8065    -2.3357 H       
  40 H40           -1.9844    -1.7376    -0.5189 H       
  41 H41           -1.0110    -0.3255    -0.0314 H       
  42 H42           -4.0840     1.9003    -0.4407 H       
  43 H43           -2.3656     2.0214     0.0190 H       
  44 H44            2.7899    -1.6248    -3.1119 H       
  45 H45           -1.6022     3.5839    -1.7376 H       
  46 H46           -2.2900     3.4489    -3.3737 H       
  47 H47           -3.3480     3.8206    -1.9914 H       
  48 H48           -4.7490     1.8221    -2.7689 H       
  49 H49           -3.5620     1.4588    -4.0446 H       
  50 H50           -3.9913     0.2134    -2.8475 H       
  51 H51            4.0807     2.7798    -4.1717 H       
  52 H52            7.9500     1.1059    -4.8250 H       
  53 H53            7.0897    -1.1246    -4.2402 H       
  54 H54            4.7272    -1.4097    -3.6139 H       
  55 H55           -3.8900    -5.7681     1.0424 H       
  56 H56           -6.1004    -4.7230     0.6225 H       
  57 H57           -6.2043    -2.2767     0.1988 H       
  58 H58           -1.9564    -6.6558     1.1560 H       
  59 H59            0.0309    -2.0372     0.1251 H       
  60 H60           -0.9535    -1.8447     1.5955 H       
  61 H61            0.8083    -2.0617     1.7261 H       
  62 H62            1.1356    -7.6393     0.6669 H       
  63 H63            1.6612    -7.0963     2.2784 H       
  64 H64            0.1297    -7.9844     2.0942 H       
@<TRIPOS>BOND
   1    1    2 1
   2    1    7 am
   3    1    6 1
   4    2    3 1
   5    2   38 1
   6    2   39 1
   7    3    4 1
   8    3   40 1
   9    3   41 1
  10    4    5 1
  11    4   14 am
  12    5    6 1
  13    5   42 1
  14    5   43 1
  15    6   17 1
  16    6   18 1
  17    7    8 1
  18    7   13 2
  19    8    9 2
  20    8   10 1
  21    9   12 1
  22   10   11 2
  23   11   12 1
  24   11   44 1
  25   12   19 1
  26   14   15 1
  27   14   16 2
  28   15   25 ar
  29   15   29 ar
  30   17   45 1
  31   17   46 1
  32   17   47 1
  33   18   48 1
  34   18   49 1
  35   18   50 1
  36   19   20 ar
  37   19   24 ar
  38   20   21 ar
  39   20   51 1
  40   21   22 ar
  41   21   35 1
  42   22   23 ar
  43   22   52 1
  44   23   24 ar
  45   23   53 1
  46   24   54 1
  47   25   26 ar
  48   26   27 ar
  49   26   30 1
  50   27   28 ar
  51   27   55 1
  52   28   29 ar
  53   28   56 1
  54   29   57 1
  55   30   31 2
  56   30   34 1
  57   31   32 1
  58   31   58 1
  59   32   33 1
  60   32   37 1
  61   33   34 2
  62   34   36 1
  63   36   59 1
  64   36   60 1
  65   36   61 1
  66   37   62 1
  67   37   63 1
  68   37   64 1

#	End of record

