#	Name: ASD07930143
#	Creating user name:	WinNT
#	Creation time:	15. 06. 2019 21:11

#	Modifying user name:	WinNT
#	Modification time:	15. 06. 2019 21:11

#	Program:	/corina/corina34_cracker 3.40 0067  02.08.2006

@<TRIPOS>MOLECULE
ASD07930143
  61   66    0    0    0
SMALL
NO_CHARGES


@<TRIPOS>ATOM
   1 C1            -0.0603     1.7057    -0.0466 C.2     
   2 C2            -0.0534     0.2361     0.1258 C.2     
   3 N3             0.9323     2.2851    -0.8042 N.am    
   4 N4             1.1094    -0.4333    -0.0601 N.am    
   5 C5             2.3205     0.3314    -0.3900 C.3     
   6 C6             1.9488     1.4159    -1.4122 C.3     
   7 C7            -1.0337     2.4625     0.5295 C.2     
   8 C8            -1.0432     3.8539     0.3707 C.2     
   9 C9            -0.0625     4.4539    -0.3706 C.2     
  10 C10            0.9706     3.6166    -0.9852 C.2     
  11 O11           -1.0701    -0.3580     0.4285 O.2     
  12 O12            1.8560     4.1221    -1.6540 O.2     
  13 C13            0.8961     6.7034    -0.0870 C.2     
  14 N14            0.5625     7.9133    -0.4451 N.2     
  15 C15           -0.5890     7.8721    -1.1322 C.2     
  16 C16           -0.9893     6.5886    -1.2059 C.2     
  17 N17           -0.0498     5.8409    -0.5435 N.pl3   
  18 C18           -1.3102     9.0577    -1.7198 C.3     
  19 C19            1.1588    -1.8921     0.0648 C.3     
  20 C20            0.3767    -2.5293    -1.0855 C.3     
  21 C21            0.5366    -2.3112     1.3983 C.3     
  22 O22           -1.0111    -2.2179    -0.9480 O.3     
  23 C23           -1.7743    -3.0970    -0.2459 C.ar    
  24 C24           -3.1527    -2.9444    -0.2087 C.ar    
  25 C25           -3.9269    -3.8386     0.5046 C.ar    
  26 C26           -3.3278    -4.8868     1.1828 C.ar    
  27 C27           -1.9525    -5.0402     1.1466 C.ar    
  28 C28           -1.1761    -4.1505     0.4291 C.ar    
  29 F29           -4.0862    -5.7601     1.8809 F       
  30 C30           -3.8049    -1.8032    -0.9459 C.3     
  31 C31           -5.3071    -1.5133    -1.1550 C.3     
  32 C32           -4.6673    -0.3322    -1.9167 C.3     
  33 C33           -3.7012    -0.2812    -0.6781 C.3     
  34 C34           -3.6725    -1.4001    -2.4355 C.3     
  35 H35            2.7158     0.7984     0.5121 H       
  36 H36            3.0689    -0.3350    -0.8189 H       
  37 H37            1.5456     0.9512    -2.3119 H       
  38 H38            2.8321     2.0027    -1.6642 H       
  39 H39           -1.8062     1.9856     1.1145 H       
  40 H40           -1.8192     4.4486     0.8296 H       
  41 H41            1.7783     6.4326     0.4741 H       
  42 H42           -1.8795     6.2190    -1.6931 H       
  43 H43           -0.9580     9.2297    -2.7369 H       
  44 H44           -2.3820     8.8600    -1.7350 H       
  45 H45           -1.1122     9.9409    -1.1125 H       
  46 H46            2.1960    -2.2251     0.0273 H       
  47 H47            0.7443    -2.1393    -2.0347 H       
  48 H48            0.5106    -3.6107    -1.0608 H       
  49 H49           -0.5024    -1.9834     1.4334 H       
  50 H50            0.5787    -3.3962     1.4939 H       
  51 H51            1.0901    -1.8525     2.2176 H       
  52 H52           -5.0000    -3.7200     0.5337 H       
  53 H53           -1.4865    -5.8582     1.6760 H       
  54 H54           -0.1035    -4.2728     0.3976 H       
  55 H55           -5.8313    -2.2344    -1.7821 H       
  56 H56           -5.8517    -1.2368    -0.2522 H       
  57 H57           -5.1538     0.4870    -2.4461 H       
  58 H58           -4.1663     0.0559     0.2482 H       
  59 H59           -2.7179     0.1523    -0.8610 H       
  60 H60           -2.6875    -1.0364    -2.7281 H       
  61 H61           -4.1109    -2.1034    -3.1435 H       
@<TRIPOS>BOND
   1    1    2 1
   2    1    3 1
   3    1    7 2
   4    2    4 am
   5    2   11 2
   6    3    6 1
   7    3   10 am
   8    4    5 1
   9    4   19 1
  10    5    6 1
  11    5   35 1
  12    5   36 1
  13    6   37 1
  14    6   38 1
  15    7    8 1
  16    7   39 1
  17    8    9 2
  18    8   40 1
  19    9   10 1
  20    9   17 1
  21   10   12 2
  22   13   14 2
  23   13   17 1
  24   13   41 1
  25   14   15 1
  26   15   16 2
  27   15   18 1
  28   16   17 1
  29   16   42 1
  30   18   43 1
  31   18   44 1
  32   18   45 1
  33   19   20 1
  34   19   21 1
  35   19   46 1
  36   20   22 1
  37   20   47 1
  38   20   48 1
  39   21   49 1
  40   21   50 1
  41   21   51 1
  42   22   23 1
  43   23   24 ar
  44   23   28 ar
  45   24   25 ar
  46   24   30 1
  47   25   26 ar
  48   25   52 1
  49   26   27 ar
  50   26   29 1
  51   27   28 ar
  52   27   53 1
  53   28   54 1
  54   30   31 1
  55   30   33 1
  56   30   34 1
  57   31   32 1
  58   31   55 1
  59   31   56 1
  60   32   33 1
  61   32   34 1
  62   32   57 1
  63   33   58 1
  64   33   59 1
  65   34   60 1
  66   34   61 1

#	End of record

