#	Name: ASD00311504
#	Creating user name:	WinNT
#	Creation time:	15. 06. 2019 18:34

#	Modifying user name:	WinNT
#	Modification time:	15. 06. 2019 18:34

#	Program:	/corina/corina34_cracker 3.40 0067  02.08.2006

@<TRIPOS>MOLECULE
ASD00311504
  49   53    0    0    0
SMALL
NO_CHARGES


@<TRIPOS>ATOM
   1 C1             0.1084     1.5780     0.1297 C.ar    
   2 C2             0.3813     0.6256     1.1300 C.ar    
   3 C3             1.4726    -0.2321     0.9845 C.ar    
   4 C4             2.2748    -0.1426    -0.1339 C.ar    
   5 C5             2.0054     0.7949    -1.1175 C.ar    
   6 C6             0.9308     1.6519    -0.9917 C.ar    
   7 C7            -1.0488     2.4910     0.2662 C.ar    
   8 C8            -1.1473     3.3322     1.3760 C.ar    
   9 C9            -2.2234     4.1810     1.5029 C.ar    
  10 C10           -3.2166     4.2004     0.5221 C.ar    
  11 C11           -3.1185     3.3589    -0.5874 C.ar    
  12 C12           -2.0390     2.5148    -0.7177 C.ar    
  13 C13           -0.4797     0.5352     2.3235 C.2     
  14 O14           -1.4964     1.1971     2.3906 O.2     
  15 O15           -0.1391    -0.2815     3.3398 O.3     
  16 C16           -5.9133     6.7561    -0.0527 C.2     
  17 C17           -4.8141     6.0015    -0.4154 C.2     
  18 C18           -4.2652     6.1655    -1.7206 C.2     
  19 C19           -4.8440     7.0756    -2.5956 C.2     
  20 C20           -5.9648     7.8211    -2.1762 C.2     
  21 N21           -6.4669     7.6529    -0.9431 N.am    
  22 C22           -4.3744     5.1131     0.6589 C.2     
  23 C23           -5.1026     5.1936     1.7710 C.2     
  24 S24           -6.3881     6.3722     1.5986 S.3     
  25 C25           -4.2888     7.2616    -3.9561 C.ar    
  26 C26           -5.0464     6.9152    -5.0748 C.ar    
  27 C27           -4.5237     7.0908    -6.3397 C.ar    
  28 C28           -3.2509     7.6088    -6.4995 C.ar    
  29 C29           -2.4946     7.9542    -5.3937 C.ar    
  30 C30           -3.0087     7.7891    -4.1239 C.ar    
  31 O31           -6.4800     8.6234    -2.9375 O.2     
  32 O32           -3.1885     5.4405    -2.1040 O.3     
  33 H33            1.6890    -0.9652     1.7474 H       
  34 H34            3.1188    -0.8076    -0.2433 H       
  35 H35            2.6406     0.8556    -1.9889 H       
  36 H36            0.7274     2.3797    -1.7632 H       
  37 H37           -0.3792     3.3166     2.1352 H       
  38 H38           -2.2996     4.8318     2.3615 H       
  39 H39           -3.8873     3.3735    -1.3458 H       
  40 H40           -1.9604     1.8676    -1.5787 H       
  41 H41           -0.7348    -0.3070     4.1010 H       
  42 H42           -7.2386     8.1740    -0.6715 H       
  43 H43           -4.9222     4.6120     2.6630 H       
  44 H44           -6.0399     6.5101    -4.9513 H       
  45 H45           -5.1093     6.8230    -7.2067 H       
  46 H46           -2.8458     7.7437    -7.4915 H       
  47 H47           -1.5015     8.3578    -5.5248 H       
  48 H48           -2.4192     8.0637    -3.2616 H       
  49 H49           -2.8919     5.6237    -3.0060 H       
@<TRIPOS>BOND
   1    1    2 ar
   2    1    6 ar
   3    1    7 1
   4    2    3 ar
   5    2   13 1
   6    3    4 ar
   7    3   33 1
   8    4    5 ar
   9    4   34 1
  10    5    6 ar
  11    5   35 1
  12    6   36 1
  13    7    8 ar
  14    7   12 ar
  15    8    9 ar
  16    8   37 1
  17    9   10 ar
  18    9   38 1
  19   10   11 ar
  20   10   22 1
  21   11   12 ar
  22   11   39 1
  23   12   40 1
  24   13   14 2
  25   13   15 1
  26   15   41 1
  27   16   17 2
  28   16   21 1
  29   16   24 1
  30   17   18 1
  31   17   22 1
  32   18   19 2
  33   18   32 1
  34   19   20 1
  35   19   25 1
  36   20   21 am
  37   20   31 2
  38   21   42 1
  39   22   23 2
  40   23   24 1
  41   23   43 1
  42   25   26 ar
  43   25   30 ar
  44   26   27 ar
  45   26   44 1
  46   27   28 ar
  47   27   45 1
  48   28   29 ar
  49   28   46 1
  50   29   30 ar
  51   29   47 1
  52   30   48 1
  53   32   49 1

#	End of record

