#	Name: ASD04930019
#	Creating user name:	WinNT
#	Creation time:	15. 06. 2019 20:56

#	Modifying user name:	WinNT
#	Modification time:	15. 06. 2019 20:56

#	Program:	/corina/corina34_cracker 3.40 0067  02.08.2006

@<TRIPOS>MOLECULE
ASD04930019
  20   21    0    0    0
SMALL
NO_CHARGES


@<TRIPOS>ATOM
   1 C1            -0.0167     1.3829     0.0096 C.ar    
   2 C2             0.0021    -0.0041     0.0020 C.ar    
   3 C3            -1.1756    -0.7271     0.0116 C.ar    
   4 C4            -2.3881    -0.0603     0.0293 C.ar    
   5 C5            -2.4075     1.3482     0.0323 C.ar    
   6 C6            -1.2179     2.0657     0.0305 C.ar    
   7 N7            -3.6050    -0.7300     0.0498 N.am    
   8 C8            -4.7526    -0.0529    -0.1518 C.2     
   9 O9            -4.7660     1.2621    -0.4421 O.3     
  10 C10           -3.7313     2.0022     0.0390 C.2     
  11 O11           -3.8871     3.1353     0.4495 O.2     
  12 O12           -5.8088    -0.6479    -0.0694 O.2     
  13 Cl13           1.4778     2.2661     0.0001 Cl      
  14 C14           -3.6408    -2.1746     0.2904 C.3     
  15 H15            0.9481    -0.5250    -0.0120 H       
  16 H16           -1.1499    -1.8067     0.0051 H       
  17 H17           -1.2318     3.1456     0.0364 H       
  18 H18           -3.7263    -2.3627     1.3606 H       
  19 H19           -4.4985    -2.6075    -0.2243 H       
  20 H20           -2.7241    -2.6285    -0.0861 H       
@<TRIPOS>BOND
   1    1    2 ar
   2    1   13 1
   3    1    6 ar
   4    2    3 ar
   5    2   15 1
   6    3    4 ar
   7    3   16 1
   8    4    5 ar
   9    4    7 1
  10    5    6 ar
  11    5   10 1
  12    6   17 1
  13    7    8 am
  14    7   14 1
  15    8    9 1
  16    8   12 2
  17    9   10 1
  18   10   11 2
  19   14   18 1
  20   14   19 1
  21   14   20 1

#	End of record

