#	Name: ASD01900160
#	Creating user name:	WinNT
#	Creation time:	15. 06. 2019 19:51

#	Modifying user name:	WinNT
#	Modification time:	15. 06. 2019 19:51

#	Program:	/corina/corina34_cracker 3.40 0067  02.08.2006

@<TRIPOS>MOLECULE
ASD01900160
  39   41    0    0    0
SMALL
NO_CHARGES


@<TRIPOS>ATOM
   1 C1             0.0378     1.3061     0.1281 C.ar    
   2 C2            -1.1245     1.6631    -0.5362 C.ar    
   3 C3            -1.1562     2.8422    -1.2646 C.ar    
   4 C4            -0.0148     3.6271    -1.3019 C.ar    
   5 C5             1.1188     3.2062    -0.6097 C.ar    
   6 N6             1.1073     2.0699     0.0761 N.ar    
   7 C7             2.3470     4.0337    -0.6394 C.2     
   8 N8             3.4467     3.6318     0.0281 N.am    
   9 O9             2.3631     5.0751    -1.2658 O.2     
  10 C10            4.6364     4.3614    -0.0795 C.ar    
  11 C11            4.5951     5.7458    -0.1804 C.ar    
  12 C12            5.7695     6.4657    -0.2861 C.ar    
  13 C13            6.9916     5.8040    -0.2915 C.ar    
  14 C14            7.0318     4.4195    -0.1906 C.ar    
  15 C15            5.8585     3.7009    -0.0796 C.ar    
  16 N16            8.1824     6.5332    -0.3992 N.am    
  17 C17            9.3127     5.9218    -0.8055 C.2     
  18 O18            9.2786     4.7634    -1.1739 O.2     
  19 Cl19           5.7186     8.1963    -0.4129 Cl      
  20 C20           10.5914     6.6579    -0.8032 C.ar    
  21 C21           11.7669     6.0259    -1.2245 C.ar    
  22 C22           12.9602     6.7219    -1.2201 C.ar    
  23 C23           12.9932     8.0416    -0.7998 C.ar    
  24 C24           11.8306     8.6717    -0.3810 C.ar    
  25 C25           10.6329     7.9906    -0.3860 C.ar    
  26 F26           14.1629     8.7176    -0.7974 F       
  27 F27           11.7347     4.7389    -1.6339 F       
  28 H28            0.0645     0.3905     0.7002 H       
  29 H29           -1.9972     1.0287    -0.4874 H       
  30 H30           -2.0501     3.1421    -1.7914 H       
  31 H31           -0.0039     4.5518    -1.8598 H       
  32 H32            3.4137     2.8370     0.5832 H       
  33 H33            3.6452     6.2596    -0.1765 H       
  34 H34            7.9815     3.9052    -0.1951 H       
  35 H35            5.8902     2.6242    -0.0012 H       
  36 H36            8.1937     7.4784    -0.1813 H       
  37 H37           13.8688     6.2363    -1.5443 H       
  38 H38           11.8636     9.7005    -0.0539 H       
  39 H39            9.7283     8.4849    -0.0641 H       
@<TRIPOS>BOND
   1    1    2 ar
   2    1    6 ar
   3    1   28 1
   4    2    3 ar
   5    2   29 1
   6    3    4 ar
   7    3   30 1
   8    4    5 ar
   9    4   31 1
  10    5    6 ar
  11    5    7 1
  12    7    8 am
  13    7    9 2
  14    8   10 1
  15    8   32 1
  16   10   11 ar
  17   10   15 ar
  18   11   12 ar
  19   11   33 1
  20   12   13 ar
  21   12   19 1
  22   13   14 ar
  23   13   16 1
  24   14   15 ar
  25   14   34 1
  26   15   35 1
  27   16   17 am
  28   16   36 1
  29   17   18 2
  30   17   20 1
  31   20   21 ar
  32   20   25 ar
  33   21   22 ar
  34   21   27 1
  35   22   23 ar
  36   22   37 1
  37   23   24 ar
  38   23   26 1
  39   24   25 ar
  40   24   38 1
  41   25   39 1

#	End of record

