#	Name: ASD03330359
#	Creating user name:	WinNT
#	Creation time:	15. 06. 2019 20:37

#	Modifying user name:	WinNT
#	Modification time:	15. 06. 2019 20:37

#	Program:	/corina/corina34_cracker 3.40 0067  02.08.2006

@<TRIPOS>MOLECULE
ASD03330359
  54   57    0    0    0
SMALL
NO_CHARGES


@<TRIPOS>ATOM
   1 C1            -0.0179     1.4655     0.0101 C.3     
   2 N2             0.0021    -0.0041     0.0020 N.3     
   3 C3             0.4494    -0.5231    -1.3031 C.3     
   4 C4             1.7237     0.1898    -1.6760 C.2     
   5 N5             2.1519     1.3316    -1.0766 N.pl3   
   6 C6             1.4184     2.0045    -0.0007 C.3     
   7 C7             2.6412    -0.1377    -2.6198 C.2     
   8 N8             3.6164     0.7992    -2.5865 N.2     
   9 C9             3.3274     1.6849    -1.6595 C.2     
  10 C10            4.1446     2.8676    -1.3094 C.ar    
  11 C11            5.1552     3.2999    -2.1686 C.ar    
  12 C12            2.5858    -1.3038    -3.5191 C.2     
  13 O13            1.6513    -2.0793    -3.4524 O.2     
  14 C14            3.5154    -2.6701    -5.3097 C.3     
  15 N15            3.5706    -1.5109    -4.4156 N.am    
  16 C16           -1.3129    -0.5504     0.3632 C.3     
  17 C17            5.9135     4.4038    -1.8366 C.ar    
  18 C18            5.6734     5.0815    -0.6547 C.ar    
  19 C19            4.6727     4.6578     0.2015 C.ar    
  20 C20            3.9040     3.5585    -0.1215 C.ar    
  21 C21            4.9109    -3.0343    -5.7466 C.ar    
  22 C22            2.6696    -2.3273    -6.5377 C.3     
  23 C23           -2.3291    -0.1942    -0.7236 C.3     
  24 C24            5.2810    -4.3628    -5.8412 C.ar    
  25 C25            6.5611    -4.6969    -6.2420 C.ar    
  26 C26            7.4710    -3.7025    -6.5486 C.ar    
  27 C27            7.1007    -2.3739    -6.4550 C.ar    
  28 C28            5.8192    -2.0399    -6.0584 C.ar    
  29 H29           -0.5467     1.8255    -0.8724 H       
  30 H30           -0.5297     1.8160     0.9063 H       
  31 H31            0.6347    -1.5947    -1.2296 H       
  32 H32           -0.3141    -0.3315    -2.0571 H       
  33 H33            1.4064     3.0795    -0.1803 H       
  34 H34            1.8965     1.7963     0.9564 H       
  35 H35            5.3438     2.7714    -3.0914 H       
  36 H36            3.0676    -3.5134    -4.7840 H       
  37 H37            4.3159    -0.8923    -4.4688 H       
  38 H38           -1.2433    -1.6343     0.4544 H       
  39 H39           -1.6340    -0.1256     1.3143 H       
  40 H40            6.6963     4.7393    -2.5007 H       
  41 H41            6.2699     5.9449    -0.3992 H       
  42 H42            4.4902     5.1911     1.1228 H       
  43 H43            3.1231     3.2287     0.5477 H       
  44 H44            3.1175    -1.4840    -7.0634 H       
  45 H45            2.6286    -3.1898    -7.2029 H       
  46 H46            1.6603    -2.0638    -6.2216 H       
  47 H47           -2.3986     0.8898    -0.8148 H       
  48 H48           -2.0080    -0.6190    -1.6747 H       
  49 H49           -3.3048    -0.5995    -0.4556 H       
  50 H50            4.5701    -5.1398    -5.6016 H       
  51 H51            6.8504    -5.7349    -6.3151 H       
  52 H52            8.4713    -3.9635    -6.8611 H       
  53 H53            7.8116    -1.5970    -6.6943 H       
  54 H54            5.5299    -1.0020    -5.9852 H       
@<TRIPOS>BOND
   1    1    2 1
   2    1    6 1
   3    1   29 1
   4    1   30 1
   5    2    3 1
   6    2   16 1
   7    3    4 1
   8    3   31 1
   9    3   32 1
  10    4    5 1
  11    4    7 2
  12    5    6 1
  13    5    9 1
  14    6   33 1
  15    6   34 1
  16    7    8 1
  17    7   12 1
  18    8    9 2
  19    9   10 1
  20   10   11 ar
  21   10   20 ar
  22   11   17 ar
  23   11   35 1
  24   12   13 2
  25   12   15 am
  26   14   15 1
  27   14   21 1
  28   14   22 1
  29   14   36 1
  30   15   37 1
  31   16   23 1
  32   16   38 1
  33   16   39 1
  34   17   18 ar
  35   17   40 1
  36   18   19 ar
  37   18   41 1
  38   19   20 ar
  39   19   42 1
  40   20   43 1
  41   21   24 ar
  42   21   28 ar
  43   22   44 1
  44   22   45 1
  45   22   46 1
  46   23   47 1
  47   23   48 1
  48   23   49 1
  49   24   25 ar
  50   24   50 1
  51   25   26 ar
  52   25   51 1
  53   26   27 ar
  54   26   52 1
  55   27   28 ar
  56   27   53 1
  57   28   54 1

#	End of record

