#	Name: ASD03091528
#	Creating user name:	WinNT
#	Creation time:	15. 06. 2019 20:30

#	Modifying user name:	WinNT
#	Modification time:	15. 06. 2019 20:30

#	Program:	/corina/corina34_cracker 3.40 0067  02.08.2006

@<TRIPOS>MOLECULE
ASD03091528
  46   48    0    0    0
SMALL
NO_CHARGES


@<TRIPOS>ATOM
   1 C1            -0.0167     1.3804     0.0096 C.ar    
   2 C2             0.0021    -0.0041     0.0020 C.ar    
   3 C3            -1.1855    -0.7107     0.0095 C.ar    
   4 C4            -2.3920    -0.0359     0.0246 C.ar    
   5 C5            -2.4120     1.3464     0.0322 C.ar    
   6 C6            -1.2256     2.0552     0.0306 C.ar    
   7 C7            -3.6863    -0.8077     0.0323 C.3     
   8 C8            -4.9783    -0.0181     0.2520 C.3     
   9 C9            -4.6514    -0.5802    -1.1330 C.3     
  10 C10           -5.4549    -1.7617    -1.6118 C.2     
  11 O11           -5.3231    -2.8419    -1.0763 O.2     
  12 N12           -6.3200    -1.6181    -2.6353 N.am    
  13 C13           -7.1012    -2.7667    -3.1008 C.3     
  14 C14           -8.3627    -2.9056    -2.2463 C.3     
  15 C15           -7.4908    -2.5586    -4.5416 C.ar    
  16 C16           -7.4592    -3.6189    -5.4371 C.ar    
  17 C17           -7.8252    -3.3843    -6.7508 C.ar    
  18 C18           -8.2097    -2.1035    -7.1269 C.ar    
  19 N19           -8.2265    -1.1186    -6.2444 N.ar    
  20 C20           -7.8884    -1.3127    -4.9837 C.ar    
  21 O21           -8.5709    -1.8604    -8.4120 O.3     
  22 O22           -9.2039    -1.7686    -2.4505 O.3     
  23 C23           -8.9559    -0.5229    -8.7357 C.3     
  24 C24           -9.3263    -0.4435   -10.2181 C.3     
  25 F25            1.1437     2.0723     0.0023 F       
  26 H26          -10.1563    -1.1200   -10.4220 H       
  27 H27           -9.6200     0.5767   -10.4651 H       
  28 H28           -8.4664    -0.7307   -10.8233 H       
  29 H29            0.9445    -0.5315    -0.0101 H       
  30 H30           -1.1711    -1.7906     0.0032 H       
  31 H31           -3.3551     1.8725     0.0437 H       
  32 H32           -1.2414     3.1350     0.0369 H       
  33 H33           -3.6325    -1.8118     0.4529 H       
  34 H34           -5.7746    -0.5029     0.8168 H       
  35 H35           -4.8921     1.0596     0.3910 H       
  36 H36           -4.3501     0.1277    -1.9051 H       
  37 H37           -6.4255    -0.7542    -3.0636 H       
  38 H38           -6.5018    -3.6730    -3.0138 H       
  39 H39           -8.8985    -3.8103    -2.5337 H       
  40 H40           -8.0840    -2.9671    -1.1943 H       
  41 H41           -7.1555    -4.6043    -5.1159 H       
  42 H42           -7.8119    -4.1862    -7.4742 H       
  43 H43           -7.9145    -0.4845    -4.2911 H       
  44 H44          -10.0241    -1.7893    -1.9387 H       
  45 H45           -9.8158    -0.2358    -8.1305 H       
  46 H46           -8.1259     0.1536    -8.5319 H       
@<TRIPOS>BOND
   1    1    2 ar
   2    1   25 1
   3    1    6 ar
   4    2    3 ar
   5    2   29 1
   6    3    4 ar
   7    3   30 1
   8    4    5 ar
   9    4    7 1
  10    5    6 ar
  11    5   31 1
  12    6   32 1
  13    7    8 1
  14    7    9 1
  15    7   33 1
  16    8    9 1
  17    8   34 1
  18    8   35 1
  19    9   10 1
  20    9   36 1
  21   10   11 2
  22   10   12 am
  23   12   13 1
  24   12   37 1
  25   13   14 1
  26   13   15 1
  27   13   38 1
  28   14   22 1
  29   14   39 1
  30   14   40 1
  31   15   16 ar
  32   15   20 ar
  33   16   17 ar
  34   16   41 1
  35   17   18 ar
  36   17   42 1
  37   18   19 ar
  38   18   21 1
  39   19   20 ar
  40   20   43 1
  41   21   23 1
  42   22   44 1
  43   23   24 1
  44   23   45 1
  45   23   46 1
  46   24   26 1
  47   24   27 1
  48   24   28 1

#	End of record

