#	Name: ASD01811581
#	Creating user name:	WinNT
#	Creation time:	15. 06. 2019 19:27

#	Modifying user name:	WinNT
#	Modification time:	15. 06. 2019 19:27

#	Program:	/corina/corina34_cracker 3.40 0067  02.08.2006

@<TRIPOS>MOLECULE
ASD01811581
  58   62    0    0    0
SMALL
NO_CHARGES


@<TRIPOS>ATOM
   1 C1            -7.3576     2.2265    -3.9983 C.1     
   2 C2            -6.3766     3.0169    -3.3175 C.ar    
   3 C3            -5.2079     2.4230    -2.8367 C.ar    
   4 C4            -4.2671     3.1904    -2.1818 C.ar    
   5 C5            -4.4796     4.5455    -2.0005 C.ar    
   6 C6            -5.6356     5.1404    -2.4740 C.ar    
   7 C7            -6.5817     4.3862    -3.1366 C.ar    
   8 N8            -8.1359     1.5994    -4.5383 N.1     
   9 N9            -2.4215     7.7924    -0.2280 N.am    
  10 C10           -1.8687     7.3012    -1.4976 C.3     
  11 C11           -2.9425     6.4794    -2.2177 C.3     
  12 C12           -3.4474     5.3772    -1.2837 C.3     
  13 C13           -4.0761     6.0089    -0.0395 C.3     
  14 C14           -3.0153     6.8254     0.7052 C.3     
  15 C15           -2.3796     9.1045     0.0772 C.2     
  16 C16           -3.0215     9.5962     1.3138 C.ar    
  17 C17           -3.9802    10.6111     1.2488 C.ar    
  18 C18           -4.5809    11.0719     2.4015 C.ar    
  19 C19           -4.2394    10.5327     3.6299 C.ar    
  20 C20           -3.2812     9.5164     3.7079 C.ar    
  21 C21           -2.6761     9.0445     2.5463 C.ar    
  22 O22           -1.8136     9.8835    -0.6649 O.2     
  23 C23           -2.9162     8.9408     5.0203 C.2     
  24 N24           -3.4382     9.3108     6.2291 N.pl3   
  25 C25           -2.8348     8.5386     7.1706 C.2     
  26 C26           -1.9650     7.7231     6.5256 C.2     
  27 N27           -2.0367     7.9804     5.2230 N.2     
  28 C28           -3.0337     8.5225     8.6641 C.3     
  29 C29           -1.1020     6.7173     7.2493 C.3     
  30 C30           -1.1049     7.0853     8.7401 C.3     
  31 O31           -2.4470     7.3178     9.1760 O.3     
  32 C32           -4.3580    11.2038    -0.0842 C.3     
  33 F33           -4.8319    10.9889     4.7551 F       
  34 H34           -5.0412     1.3652    -2.9770 H       
  35 H35           -3.3627     2.7323    -1.8094 H       
  36 H36           -5.7953     6.1986    -2.3288 H       
  37 H37           -7.4814     4.8527    -3.5099 H       
  38 H38           -1.5768     8.1467    -2.1205 H       
  39 H39           -1.0000     6.6735    -1.2993 H       
  40 H40           -3.7723     7.1291    -2.4957 H       
  41 H41           -2.5159     6.0294    -3.1142 H       
  42 H42           -2.6126     4.7427    -0.9861 H       
  43 H43           -4.8953     6.6631    -0.3381 H       
  44 H44           -4.4565     5.2241     0.6143 H       
  45 H45           -2.2400     6.1589     1.0831 H       
  46 H46           -3.4798     7.3569     1.5358 H       
  47 H47           -5.3206    11.8569     2.3456 H       
  48 H48           -1.9390     8.2570     2.6004 H       
  49 H49           -4.1096     9.9934     6.3845 H       
  50 H50           -2.5453     9.3888     9.1102 H       
  51 H51           -4.0990     8.5402     8.8942 H       
  52 H52           -1.5106     5.7157     7.1152 H       
  53 H53           -0.0842     6.7568     6.8611 H       
  54 H54           -0.6730     6.2672     9.3165 H       
  55 H55           -0.5126     7.9876     8.8922 H       
  56 H56           -5.1265    10.5877    -0.5511 H       
  57 H57           -4.7413    12.2136     0.0626 H       
  58 H58           -3.4794    11.2388    -0.7284 H       
@<TRIPOS>BOND
   1    1    2 1
   2    1    8 3
   3    2    3 ar
   4    2    7 ar
   5    3    4 ar
   6    3   34 1
   7    4    5 ar
   8    4   35 1
   9    5    6 ar
  10    5   12 1
  11    6    7 ar
  12    6   36 1
  13    7   37 1
  14    9   10 1
  15    9   14 1
  16    9   15 am
  17   10   11 1
  18   10   38 1
  19   10   39 1
  20   11   12 1
  21   11   40 1
  22   11   41 1
  23   12   13 1
  24   12   42 1
  25   13   14 1
  26   13   43 1
  27   13   44 1
  28   14   45 1
  29   14   46 1
  30   15   16 1
  31   15   22 2
  32   16   17 ar
  33   16   21 ar
  34   17   18 ar
  35   17   32 1
  36   18   19 ar
  37   18   47 1
  38   19   20 ar
  39   19   33 1
  40   20   21 ar
  41   20   23 1
  42   21   48 1
  43   23   24 1
  44   23   27 2
  45   24   25 1
  46   24   49 1
  47   25   26 2
  48   25   28 1
  49   26   27 1
  50   26   29 1
  51   28   31 1
  52   28   50 1
  53   28   51 1
  54   29   30 1
  55   29   52 1
  56   29   53 1
  57   30   31 1
  58   30   54 1
  59   30   55 1
  60   32   56 1
  61   32   57 1
  62   32   58 1

#	End of record

