#	Name: ASD01810634
#	Creating user name:	WinNT
#	Creation time:	15. 06. 2019 19:25

#	Modifying user name:	WinNT
#	Modification time:	15. 06. 2019 19:25

#	Program:	/corina/corina34_cracker 3.40 0067  02.08.2006

@<TRIPOS>MOLECULE
ASD01810634
  66   70    0    0    0
SMALL
NO_CHARGES


@<TRIPOS>ATOM
   1 C1            -0.3765     1.5996    -1.1536 C.ar    
   2 C2             0.1439     0.7184    -0.2040 C.ar    
   3 C3            -0.6400     0.2925     0.8503 C.ar    
   4 C4            -1.9422     0.7340     0.9727 C.ar    
   5 C5            -2.4753     1.6158     0.0297 C.ar    
   6 C6            -1.6880     2.0537    -1.0330 C.ar    
   7 C7            -3.8705     2.0875     0.1619 C.2     
   8 C8             1.5641     0.2303    -0.3301 C.3     
   9 C9            -2.7905     0.2632     2.1259 C.3     
  10 N10           -4.1344     3.4086     0.2008 N.am    
  11 O11           -4.7793     1.2837     0.2354 O.2     
  12 C12           -5.5048     3.8921     0.4169 C.3     
  13 C13           -3.0561     4.3926     0.0342 C.3     
  14 C14           -3.0865     5.3628     1.2193 C.3     
  15 C15           -4.4840     5.9755     1.3361 C.3     
  16 C16           -5.5028     4.8690     1.5969 C.3     
  17 C17           -4.5083     6.9562     2.4800 C.ar    
  18 C18           -4.8161     8.2834     2.2463 C.ar    
  19 C19           -4.8383     9.1830     3.2956 C.ar    
  20 C20           -4.5531     8.7553     4.5788 C.ar    
  21 C21           -4.2461     7.4279     4.8127 C.ar    
  22 C22           -4.2282     6.5275     3.7640 C.ar    
  23 S23           -4.5803     9.9022     5.9162 S.o2    
  24 C24            0.4648     2.0551    -2.2819 C.2     
  25 N25            1.7441     1.7855    -2.4472 N.2     
  26 C26            2.1681     2.3572    -3.5698 C.2     
  27 C27            1.1250     3.0130    -4.1356 C.2     
  28 N28            0.0454     2.8224    -3.3334 N.pl3   
  29 C29            3.5463     2.3337    -4.1864 C.3     
  30 C30            3.4135     2.7915    -5.6461 C.3     
  31 O31            2.6253     3.9831    -5.7073 O.3     
  32 C32            1.2329     3.7854    -5.4249 C.3     
  33 C33           -6.2892     9.8501     6.5225 C.3     
  34 O34           -3.6936     9.3429     6.8755 O.2     
  35 O35           -4.3050    11.1565     5.3078 O.2     
  36 H36           -0.2324    -0.3893     1.5821 H       
  37 H37           -2.0952     2.7358    -1.7647 H       
  38 H38            2.2404     0.9624     0.1112 H       
  39 H39            1.6688    -0.7214     0.1908 H       
  40 H40            1.8103     0.0969    -1.3835 H       
  41 H41           -2.6067     0.8960     2.9942 H       
  42 H42           -3.8434     0.3217     1.8500 H       
  43 H43           -2.5349    -0.7685     2.3675 H       
  44 H44           -5.8578     4.4024    -0.4793 H       
  45 H45           -6.1586     3.0493     0.6414 H       
  46 H46           -2.0946     3.8799     0.0063 H       
  47 H47           -3.2053     4.9445    -0.8938 H       
  48 H48           -2.8475     4.8245     2.1364 H       
  49 H49           -2.3543     6.1545     1.0602 H       
  50 H50           -4.7324     6.4928     0.4093 H       
  51 H51           -6.4955     5.3063     1.7036 H       
  52 H52           -5.2379     4.3390     2.5118 H       
  53 H53           -5.0390     8.6176     1.2437 H       
  54 H54           -5.0782    10.2201     3.1129 H       
  55 H55           -4.0230     7.0938     5.8152 H       
  56 H56           -3.9884     5.4904     3.9468 H       
  57 H57           -0.8494     3.1685    -3.4761 H       
  58 H58            4.2048     3.0128    -3.6448 H       
  59 H59            3.9491     1.3215    -4.1519 H       
  60 H60            4.4040     2.9903    -6.0554 H       
  61 H61            2.9313     2.0073    -6.2297 H       
  62 H62            0.7697     3.2196    -6.2333 H       
  63 H63            0.7377     4.7506    -5.3189 H       
  64 H64           -6.5280     8.8381     6.8494 H       
  65 H65           -6.3983    10.5380     7.3609 H       
  66 H66           -6.9680    10.1429     5.7215 H       
@<TRIPOS>BOND
   1    1    2 ar
   2    1   24 1
   3    1    6 ar
   4    2    3 ar
   5    2    8 1
   6    3    4 ar
   7    3   36 1
   8    4    5 ar
   9    4    9 1
  10    5    6 ar
  11    5    7 1
  12    6   37 1
  13    7   10 am
  14    7   11 2
  15    8   38 1
  16    8   39 1
  17    8   40 1
  18    9   41 1
  19    9   42 1
  20    9   43 1
  21   10   12 1
  22   10   13 1
  23   12   16 1
  24   12   44 1
  25   12   45 1
  26   13   14 1
  27   13   46 1
  28   13   47 1
  29   14   15 1
  30   14   48 1
  31   14   49 1
  32   15   16 1
  33   15   17 1
  34   15   50 1
  35   16   51 1
  36   16   52 1
  37   17   18 ar
  38   17   22 ar
  39   18   19 ar
  40   18   53 1
  41   19   20 ar
  42   19   54 1
  43   20   21 ar
  44   20   23 1
  45   21   22 ar
  46   21   55 1
  47   22   56 1
  48   23   33 1
  49   23   34 2
  50   23   35 2
  51   24   25 2
  52   24   28 1
  53   25   26 1
  54   26   27 2
  55   26   29 1
  56   27   28 1
  57   27   32 1
  58   28   57 1
  59   29   30 1
  60   29   58 1
  61   29   59 1
  62   30   31 1
  63   30   60 1
  64   30   61 1
  65   31   32 1
  66   32   62 1
  67   32   63 1
  68   33   64 1
  69   33   65 1
  70   33   66 1

#	End of record

