#	Name: ASD08070082
#	Creating user name:	WinNT
#	Creation time:	15. 06. 2019 21:14

#	Modifying user name:	WinNT
#	Modification time:	15. 06. 2019 21:14

#	Program:	/corina/corina34_cracker 3.40 0067  02.08.2006

@<TRIPOS>MOLECULE
ASD08070082
  41   41    0    0    0
SMALL
NO_CHARGES


@<TRIPOS>ATOM
   1 C1            -0.0166     1.3728     0.0096 C.ar    
   2 C2             0.0021    -0.0041     0.0020 C.ar    
   3 C3             1.1765     2.0859     0.0020 C.ar    
   4 C4             2.3926     1.4130    -0.0137 C.ar    
   5 C5             2.4197     0.0363    -0.0219 C.ar    
   6 C6             1.2226    -0.6843    -0.0133 C.ar    
   7 C7             1.2471    -2.1601    -0.0215 C.2     
   8 O8             2.3100    -2.7503    -0.0357 O.2     
   9 C9             0.2351    -4.8182    -1.4625 C.3     
  10 C10            0.1158    -4.3181    -0.0214 C.3     
  11 N11            0.0914    -2.8533    -0.0133 N.am    
  12 C12           -1.1765    -4.8532     0.5987 C.3     
  13 C13           -1.2354    -4.4575     2.0755 C.3     
  14 O14            1.1539     3.4428     0.0096 O.3     
  15 C15           -2.5277    -4.9926     2.6957 C.3     
  16 C16            2.4161     4.1127     0.0011 C.3     
  17 C17            1.5842    -4.3877    -2.0417 C.3     
  18 C18            1.7035    -4.8878    -3.4827 C.3     
  19 H19           -0.9595     1.8993     0.0169 H       
  20 H20           -0.9253    -0.5575     0.0083 H       
  21 H21            3.3174     1.9707    -0.0199 H       
  22 H22            3.3651    -0.4858    -0.0348 H       
  23 H23            0.1640    -5.9058    -1.4767 H       
  24 H24           -0.5700    -4.3936    -2.0622 H       
  25 H25            0.9696    -4.6705     0.5573 H       
  26 H26           -0.7566    -2.3825    -0.0020 H       
  27 H27           -2.0334    -4.4298     0.0747 H       
  28 H28           -1.1983    -5.9395     0.5125 H       
  29 H29           -0.3785    -4.8809     2.5995 H       
  30 H30           -1.2136    -3.3712     2.1618 H       
  31 H31           -2.5696    -4.7107     3.7478 H       
  32 H32           -3.3846    -4.5692     2.1717 H       
  33 H33           -2.5495    -6.0789     2.6094 H       
  34 H34            2.9864     3.8244     0.8841 H       
  35 H35            2.9693     3.8340    -0.8957 H       
  36 H36            2.2553     5.1908     0.0085 H       
  37 H37            1.6553    -3.3001    -2.0275 H       
  38 H38            2.3892    -4.8123    -1.4419 H       
  39 H39            2.6646    -4.5811    -3.8954 H       
  40 H40            1.6324    -5.9754    -3.4970 H       
  41 H41            0.8984    -4.4632    -4.0825 H       
@<TRIPOS>BOND
   1    1    2 ar
   2    1    3 ar
   3    1   19 1
   4    2    6 ar
   5    2   20 1
   6    3    4 ar
   7    3   14 1
   8    4    5 ar
   9    4   21 1
  10    5    6 ar
  11    5   22 1
  12    6    7 1
  13    7    8 2
  14    7   11 am
  15    9   10 1
  16    9   17 1
  17    9   23 1
  18    9   24 1
  19   10   12 1
  20   10   11 1
  21   10   25 1
  22   11   26 1
  23   12   13 1
  24   12   27 1
  25   12   28 1
  26   13   15 1
  27   13   29 1
  28   13   30 1
  29   14   16 1
  30   15   31 1
  31   15   32 1
  32   15   33 1
  33   16   34 1
  34   16   35 1
  35   16   36 1
  36   17   18 1
  37   17   37 1
  38   17   38 1
  39   18   39 1
  40   18   40 1
  41   18   41 1

#	End of record

