#	Name: ASD02508181
#	Creating user name:	WinNT
#	Creation time:	15. 06. 2019 20:23

#	Modifying user name:	WinNT
#	Modification time:	15. 06. 2019 20:23

#	Program:	/corina/corina34_cracker 3.40 0067  02.08.2006

@<TRIPOS>MOLECULE
ASD02508181
  53   56    0    0    0
SMALL
NO_CHARGES


@<TRIPOS>ATOM
   1 C1            -0.0168     1.3911     0.0097 C.ar    
   2 C2             0.0021    -0.0041     0.0020 C.ar    
   3 C3            -1.1670    -0.7436     0.0096 C.ar    
   4 C4            -2.3892    -0.1001     0.0251 C.ar    
   5 C5            -2.4296     1.2837     0.0330 C.ar    
   6 C6            -1.2699     2.0227     0.0305 C.ar    
   7 S7            -3.8842    -1.0326     0.0343 S.o2    
   8 N8            -4.2848    -1.3010     1.6186 N.am    
   9 C9            -5.1351    -0.3489     2.3468 C.3     
  10 N10            1.2342     1.9813     0.0009 N.am    
  11 C11            2.3140     1.1938    -0.0136 C.2     
  12 S12            1.7082    -0.4709    -0.0168 S.3     
  13 O13           -4.8913    -0.1815    -0.4955 O.2     
  14 O14           -3.5687    -2.3022    -0.5204 O.2     
  15 C15            1.3727     3.4397     0.0069 C.3     
  16 O16            3.4782     1.5486    -0.0234 O.2     
  17 C17           -6.3392    -1.1063     2.9201 C.3     
  18 N18           -5.8512    -2.3012     3.6229 N.am    
  19 C19           -5.0008    -3.2533     2.8947 C.3     
  20 C20           -3.8013    -2.4988     2.3197 C.3     
  21 C21           -6.1772    -2.5197     4.9122 C.2     
  22 C22           -5.6693    -3.7495     5.6199 C.3     
  23 C23           -6.1733    -3.7559     7.0401 C.ar    
  24 C24           -7.3784    -4.3617     7.3431 C.ar    
  25 C25           -7.8407    -4.3676     8.6458 C.ar    
  26 C26           -7.0978    -3.7682     9.6456 C.ar    
  27 C27           -5.8923    -3.1632     9.3428 C.ar    
  28 C28           -5.4278    -3.1611     8.0408 C.ar    
  29 O29           -6.8793    -1.7266     5.5030 O.2     
  30 C30           -7.6023    -3.7737    11.0656 C.3     
  31 F31           -7.1320    -4.9156    11.7231 F       
  32 F32           -7.1419    -2.6310    11.7286 F       
  33 F33           -9.0013    -3.7798    11.0635 F       
  34 H34           -1.1242    -1.8228     0.0030 H       
  35 H35           -3.3839     1.7892     0.0451 H       
  36 H36           -1.3241     3.1013     0.0371 H       
  37 H37           -4.5660     0.1024     3.1595 H       
  38 H38           -5.4822     0.4274     1.6648 H       
  39 H39            1.4167     3.7963     1.0360 H       
  40 H40            2.2881     3.7199    -0.5141 H       
  41 H41            0.5162     3.8881    -0.4966 H       
  42 H42           -6.8761    -0.4647     3.6188 H       
  43 H43           -7.0036    -1.4048     2.1091 H       
  44 H44           -4.6538    -4.0296     3.5766 H       
  45 H45           -5.5699    -3.7046     2.0819 H       
  46 H46           -3.2654    -3.1415     1.6213 H       
  47 H47           -3.1357    -2.1987     3.1291 H       
  48 H48           -6.0273    -4.6399     5.1032 H       
  49 H49           -4.5793    -3.7438     5.6212 H       
  50 H50           -7.9588    -4.8300     6.5619 H       
  51 H51           -8.7826    -4.8402     8.8824 H       
  52 H52           -5.3120    -2.6946    10.1239 H       
  53 H53           -4.4860    -2.6885     7.8042 H       
@<TRIPOS>BOND
   1    1    2 ar
   2    1   10 1
   3    1    6 ar
   4    2    3 ar
   5    2   12 1
   6    3    4 ar
   7    3   34 1
   8    4    5 ar
   9    4    7 1
  10    5    6 ar
  11    5   35 1
  12    6   36 1
  13    7    8 am
  14    7   13 2
  15    7   14 2
  16    8    9 1
  17    8   20 1
  18    9   17 1
  19    9   37 1
  20    9   38 1
  21   10   11 am
  22   10   15 1
  23   11   12 1
  24   11   16 2
  25   15   39 1
  26   15   40 1
  27   15   41 1
  28   17   18 1
  29   17   42 1
  30   17   43 1
  31   18   19 1
  32   18   21 am
  33   19   20 1
  34   19   44 1
  35   19   45 1
  36   20   46 1
  37   20   47 1
  38   21   22 1
  39   21   29 2
  40   22   23 1
  41   22   48 1
  42   22   49 1
  43   23   24 ar
  44   23   28 ar
  45   24   25 ar
  46   24   50 1
  47   25   26 ar
  48   25   51 1
  49   26   27 ar
  50   26   30 1
  51   27   28 ar
  52   27   52 1
  53   28   53 1
  54   30   31 1
  55   30   32 1
  56   30   33 1

#	End of record

