#	Name: ASD03731239
#	Creating user name:	WinNT
#	Creation time:	15. 06. 2019 20:45

#	Modifying user name:	WinNT
#	Modification time:	15. 06. 2019 20:45

#	Program:	/corina/corina34_cracker 3.40 0067  02.08.2006

@<TRIPOS>MOLECULE
ASD03731239
  54   59    0    0    0
SMALL
NO_CHARGES


@<TRIPOS>ATOM
   1 N1            -0.0162     1.3436     0.0094 N.am    
   2 C2             0.1031     0.0011     0.0187 C.2     
   3 O3             1.2015    -0.5123    -0.0734 O.2     
   4 N4            -0.9951    -0.7723     0.1300 N.am    
   5 C5            -0.8654    -2.2315     0.1400 C.3     
   6 C6            -2.2511    -2.8657     0.2754 C.3     
   7 O7             3.0808    -7.3672     2.0070 O.3     
   8 C8             3.6225    -8.6840     2.2207 C.3     
   9 O9             2.5434    -9.4001     2.8498 O.3     
  10 C10            1.3997    -8.7922     2.4170 C.ar    
  11 C11            1.7307    -7.5418     1.8998 C.ar    
  12 C12            0.0816    -9.2120     2.4217 C.ar    
  13 C13           -0.9213    -8.3918     1.9137 C.ar    
  14 C14           -0.5794    -7.1415     1.4074 C.ar    
  15 C15            0.7346    -6.7226     1.3957 C.ar    
  16 O16           -2.2624    -8.6172     1.8092 O.3     
  17 C17           -1.8637    -6.4914     0.9668 C.3     
  18 C18           -2.9427    -7.3604     1.6271 C.3     
  19 N19           -2.1214    -4.3249     0.2854 N.am    
  20 C20           -1.9541    -5.0578     1.4043 C.2     
  21 C21           -2.0055    -6.4614    -0.5261 C.ar    
  22 C22           -2.0089    -7.4337    -1.5012 C.ar    
  23 C23           -2.1656    -7.0819    -2.8301 C.ar    
  24 C24           -2.3181    -5.7516    -3.1765 C.ar    
  25 C25           -2.3143    -4.7740    -2.2036 C.ar    
  26 C26           -2.1576    -5.1190    -0.8634 C.ar    
  27 O27           -1.8897    -4.6411     2.5415 O.2     
  28 C28            1.1299     2.1484    -0.0210 C.ar    
  29 C29            1.0878     3.4403     0.4913 C.ar    
  30 C30            2.2223     4.2319     0.4591 C.ar    
  31 C31            3.3964     3.7378    -0.0823 C.ar    
  32 C32            3.4392     2.4536    -0.5918 C.ar    
  33 C33            2.3113     1.6560    -0.5575 C.ar    
  34 F34           -0.0587     3.9219     1.0191 F       
  35 Cl35           2.1728     5.8455     1.0975 Cl      
  36 H36           -0.8958     1.7524     0.0199 H       
  37 H37           -1.8713    -0.3627     0.2034 H       
  38 H38           -0.4040    -2.5617    -0.7907 H       
  39 H39           -0.2430    -2.5352     0.9818 H       
  40 H40           -2.7125    -2.5356     1.2061 H       
  41 H41           -2.8735    -2.5621    -0.5664 H       
  42 H42            3.8875    -9.1479     1.2707 H       
  43 H43            4.4887    -8.6392     2.8810 H       
  44 H44           -0.1708   -10.1827     2.8222 H       
  45 H45            0.9873    -5.7530     0.9926 H       
  46 H46           -3.8025    -7.4777     0.9674 H       
  47 H47           -3.2441    -6.9407     2.5868 H       
  48 H48           -1.8895    -8.4718    -1.2284 H       
  49 H49           -2.1693    -7.8443    -3.5950 H       
  50 H50           -2.4403    -5.4770    -4.2138 H       
  51 H51           -2.4333    -3.7373    -2.4820 H       
  52 H52            4.2809     4.3571    -0.1069 H       
  53 H53            4.3570     2.0715    -1.0138 H       
  54 H54            2.3479     0.6513    -0.9521 H       
@<TRIPOS>BOND
   1    1    2 am
   2    1   28 1
   3    1   36 1
   4    2    3 2
   5    2    4 am
   6    4    5 1
   7    4   37 1
   8    5    6 1
   9    5   38 1
  10    5   39 1
  11    6   19 1
  12    6   40 1
  13    6   41 1
  14    7    8 1
  15    7   11 1
  16    8    9 1
  17    8   42 1
  18    8   43 1
  19    9   10 1
  20   10   11 ar
  21   10   12 ar
  22   11   15 ar
  23   12   13 ar
  24   12   44 1
  25   13   14 ar
  26   13   16 1
  27   14   15 ar
  28   14   17 1
  29   15   45 1
  30   16   18 1
  31   17   18 1
  32   17   20 1
  33   17   21 1
  34   18   46 1
  35   18   47 1
  36   19   20 am
  37   19   26 1
  38   20   27 2
  39   21   22 ar
  40   21   26 ar
  41   22   23 ar
  42   22   48 1
  43   23   24 ar
  44   23   49 1
  45   24   25 ar
  46   24   50 1
  47   25   26 ar
  48   25   51 1
  49   28   29 ar
  50   28   33 ar
  51   29   30 ar
  52   29   34 1
  53   30   31 ar
  54   30   35 1
  55   31   32 ar
  56   31   52 1
  57   32   33 ar
  58   32   53 1
  59   33   54 1

#	End of record

