#	Name: ASD04940010
#	Creating user name:	WinNT
#	Creation time:	15. 06. 2019 20:56

#	Modifying user name:	WinNT
#	Modification time:	15. 06. 2019 20:56

#	Program:	/corina/corina34_cracker 3.40 0067  02.08.2006

@<TRIPOS>MOLECULE
ASD04940010
  51   54    0    0    0
SMALL
NO_CHARGES


@<TRIPOS>ATOM
   1 C1             1.9970     3.1226    -2.5753 C.ar    
   2 C2             2.6041     2.2671    -3.4690 C.ar    
   3 C3             3.3347     1.1811    -3.0106 C.ar    
   4 C4             3.4643     0.9418    -1.6593 C.ar    
   5 C5             2.8589     1.7938    -0.7408 C.ar    
   6 C6             2.1200     2.8923    -1.2068 C.ar    
   7 N7             2.8180     1.8028     0.6407 N.pl3   
   8 C8             2.0829     2.8620     1.0902 C.2     
   9 C9             1.6131     3.5884    -0.0090 C.2     
  10 C10            0.8184     4.7511     0.0216 C.2     
  11 O11           -0.3895     4.6643    -0.0787 O.2     
  12 C12            1.4662     6.1027     0.1788 C.3     
  13 N13            0.4477     7.1526     0.0430 N.3     
  14 C14            0.9898     8.4641     0.4226 C.3     
  15 C15           -0.1327     9.4659     0.5083 C.2     
  16 N16            0.1296    10.7448     0.8431 N.am    
  17 C17           -0.0983     7.1832    -1.3204 C.3     
  18 C18           -0.9499    11.7409     0.9332 C.3     
  19 C19           -0.8318    12.4611     2.2813 C.3     
  20 O20            0.5012    12.9537     2.4366 O.3     
  21 C21            1.5022    11.9335     2.4682 C.3     
  22 C22            1.5030    11.1850     1.1352 C.3     
  23 O23           -1.2721     9.1213     0.2762 O.2     
  24 C24            1.8263     3.1842     2.4954 C.2     
  25 C25            2.7544     3.1975     3.4990 C.2     
  26 C26            2.0737     3.5578     4.6734 C.2     
  27 C27            0.7782     3.7460     4.3403 C.2     
  28 O28            0.6339     3.5256     3.0254 O.3     
  29 H29            1.4321     3.9703    -2.9341 H       
  30 H30            2.5103     2.4429    -4.5305 H       
  31 H31            3.8064     0.5163    -3.7191 H       
  32 H32            4.0353     0.0928    -1.3135 H       
  33 H33            3.2506     1.1482     1.2110 H       
  34 H34            1.9297     6.1712     1.1630 H       
  35 H35            2.2269     6.2327    -0.5909 H       
  36 H36            1.4827     8.3869     1.3917 H       
  37 H37            1.7110     8.7899    -0.3270 H       
  38 H38           -0.5556     6.2209    -1.5503 H       
  39 H39           -0.8499     7.9693    -1.3932 H       
  40 H40            0.7054     7.3822    -2.0293 H       
  41 H41           -0.8525    12.4622     0.1219 H       
  42 H42           -1.9165    11.2416     0.8672 H       
  43 H43           -1.5338    13.2944     2.3115 H       
  44 H44           -1.0585    11.7637     3.0877 H       
  45 H45            2.4795    12.3873     2.6329 H       
  46 H46            1.2840    11.2342     3.2753 H       
  47 H47            2.1598    10.3178     1.2028 H       
  48 H48            1.8515    11.8494     0.3445 H       
  49 H49            3.8070     2.9740     3.4067 H       
  50 H50            2.5049     3.6638     5.6579 H       
  51 H51           -0.0108     4.0317     5.0203 H       
@<TRIPOS>BOND
   1    1    2 ar
   2    1    6 ar
   3    1   29 1
   4    2    3 ar
   5    2   30 1
   6    3    4 ar
   7    3   31 1
   8    4    5 ar
   9    4   32 1
  10    5    7 1
  11    5    6 ar
  12    6    9 1
  13    7    8 1
  14    7   33 1
  15    8    9 2
  16    8   24 1
  17    9   10 1
  18   10   11 2
  19   10   12 1
  20   12   13 1
  21   12   34 1
  22   12   35 1
  23   13   14 1
  24   13   17 1
  25   14   15 1
  26   14   36 1
  27   14   37 1
  28   15   16 am
  29   15   23 2
  30   16   18 1
  31   16   22 1
  32   17   38 1
  33   17   39 1
  34   17   40 1
  35   18   19 1
  36   18   41 1
  37   18   42 1
  38   19   20 1
  39   19   43 1
  40   19   44 1
  41   20   21 1
  42   21   22 1
  43   21   45 1
  44   21   46 1
  45   22   47 1
  46   22   48 1
  47   24   25 2
  48   24   28 1
  49   25   26 1
  50   25   49 1
  51   26   27 2
  52   26   50 1
  53   27   28 1
  54   27   51 1

#	End of record

