#	Name: ASD03730301
#	Creating user name:	WinNT
#	Creation time:	15. 06. 2019 20:44

#	Modifying user name:	WinNT
#	Modification time:	15. 06. 2019 20:44

#	Program:	/corina/corina34_cracker 3.40 0067  02.08.2006

@<TRIPOS>MOLECULE
ASD03730301
  71   76    0    0    0
SMALL
NO_CHARGES


@<TRIPOS>ATOM
   1 N1            -0.4443     1.2684     1.1299 N.3     
   2 C2            -0.3927    -0.2113     1.1863 C.3     
   3 O3             0.7189    -0.5392     0.3334 O.3     
   4 C4             1.5640     0.5323     0.3641 C.ar    
   5 C5             0.8797     1.6504     0.8387 C.ar    
   6 C6             2.9004     0.6419     0.0182 C.ar    
   7 C7             3.5629     1.8602     0.1325 C.ar    
   8 C8             2.8619     2.9726     0.5879 C.ar    
   9 C9             1.5333     2.8671     0.9441 C.ar    
  10 O10            4.8658     2.1706    -0.1273 O.3     
  11 C11            3.8248     4.1289     0.5610 C.3     
  12 C12            4.9928     3.5970    -0.2811 C.3     
  13 N13            3.3160     6.3347     0.8761 N.am    
  14 C14            3.2170     5.3599    -0.0493 C.2     
  15 C15            4.2643     4.5421     1.9336 C.ar    
  16 C16            4.8819     3.8779     2.9844 C.ar    
  17 C17            5.1675     4.5623     4.1653 C.ar    
  18 C18            4.8337     5.8973     4.2809 C.ar    
  19 C19            4.2192     6.5571     3.2362 C.ar    
  20 C20            3.9258     5.8857     2.0506 C.ar    
  21 O21            2.7332     5.4575    -1.1572 O.2     
  22 C22           -0.8835     1.8292     2.4146 C.3     
  23 C23            0.2137     1.6264     3.4614 C.3     
  24 C24           -0.2437     2.2105     4.7995 C.3     
  25 C25            0.8535     2.0076     5.8463 C.3     
  26 C26            0.3961     2.5917     7.1844 C.3     
  27 C27            5.2369     2.4431     2.8516 C.ar    
  28 C28            6.1370     2.0343     1.8707 C.ar    
  29 C29            6.4647     0.6938     1.7521 C.ar    
  30 C30            5.8963    -0.2384     2.6096 C.ar    
  31 C31            5.0027     0.1668     3.5829 C.ar    
  32 C32            4.6749     1.5019     3.7118 C.ar    
  33 O33            7.3423     0.2909     0.7958 O.3     
  34 C34            7.6344    -1.1064     0.7306 C.3     
  35 C35            8.6339    -1.3663    -0.3983 C.3     
  36 C36            8.9466    -2.8624    -0.4682 C.3     
  37 C37            9.9461    -3.1223    -1.5970 C.3     
  38 H38           -0.2080    -0.5507     2.2055 H       
  39 H39           -1.3152    -0.6429     0.7979 H       
  40 H40            3.4330    -0.2255    -0.3430 H       
  41 H41            1.0019     3.7348     1.3061 H       
  42 H42            5.9462     3.9456     0.1158 H       
  43 H43            4.8790     3.8851    -1.3262 H       
  44 H44            3.0010     7.2424     0.7423 H       
  45 H45            5.6474     4.0503     4.9863 H       
  46 H46            5.0554     6.4285     5.1947 H       
  47 H47            3.9635     7.6014     3.3382 H       
  48 H48           -1.0813     2.8947     2.2973 H       
  49 H49           -1.7933     1.3244     2.7394 H       
  50 H50            0.4115     0.5609     3.5787 H       
  51 H51            1.1235     2.1312     3.1366 H       
  52 H52           -0.4415     3.2760     4.6822 H       
  53 H53           -1.1535     1.7056     5.1243 H       
  54 H54            1.0513     0.9422     5.9636 H       
  55 H55            1.7633     2.5125     5.5215 H       
  56 H56           -0.5137     2.0869     7.5092 H       
  57 H57            1.1778     2.4472     7.9302 H       
  58 H58            0.1983     3.6572     7.0671 H       
  59 H59            6.5781     2.7605     1.2041 H       
  60 H60            6.1530    -1.2832     2.5156 H       
  61 H61            4.5627    -0.5623     4.2471 H       
  62 H62            3.9800     1.8160     4.4764 H       
  63 H63            8.0635    -1.4325     1.6780 H       
  64 H64            6.7161    -1.6609     0.5376 H       
  65 H65            8.2048    -1.0402    -1.3457 H       
  66 H66            9.5522    -0.8118    -0.2053 H       
  67 H67            9.3757    -3.1885     0.4793 H       
  68 H68            8.0283    -3.4169    -0.6611 H       
  69 H69            9.5170    -2.7962    -2.5445 H       
  70 H70           10.8645    -2.5678    -1.4041 H       
  71 H71           10.1689    -4.1881    -1.6468 H       
@<TRIPOS>BOND
   1    1    2 1
   2    1    5 1
   3    1   22 1
   4    2    3 1
   5    2   38 1
   6    2   39 1
   7    3    4 1
   8    4    5 ar
   9    4    6 ar
  10    5    9 ar
  11    6    7 ar
  12    6   40 1
  13    7    8 ar
  14    7   10 1
  15    8    9 ar
  16    8   11 1
  17    9   41 1
  18   10   12 1
  19   11   12 1
  20   11   14 1
  21   11   15 1
  22   12   42 1
  23   12   43 1
  24   13   14 am
  25   13   20 1
  26   13   44 1
  27   14   21 2
  28   15   16 ar
  29   15   20 ar
  30   16   17 ar
  31   16   27 1
  32   17   18 ar
  33   17   45 1
  34   18   19 ar
  35   18   46 1
  36   19   20 ar
  37   19   47 1
  38   22   23 1
  39   22   48 1
  40   22   49 1
  41   23   24 1
  42   23   50 1
  43   23   51 1
  44   24   25 1
  45   24   52 1
  46   24   53 1
  47   25   26 1
  48   25   54 1
  49   25   55 1
  50   26   56 1
  51   26   57 1
  52   26   58 1
  53   27   28 ar
  54   27   32 ar
  55   28   29 ar
  56   28   59 1
  57   29   30 ar
  58   29   33 1
  59   30   31 ar
  60   30   60 1
  61   31   32 ar
  62   31   61 1
  63   32   62 1
  64   33   34 1
  65   34   35 1
  66   34   63 1
  67   34   64 1
  68   35   36 1
  69   35   65 1
  70   35   66 1
  71   36   37 1
  72   36   67 1
  73   36   68 1
  74   37   69 1
  75   37   70 1
  76   37   71 1

#	End of record

