#	Name: ASD01730009
#	Creating user name:	WinNT
#	Creation time:	15. 06. 2019 19:23

#	Modifying user name:	WinNT
#	Modification time:	15. 06. 2019 19:23

#	Program:	/corina/corina34_cracker 3.40 0067  02.08.2006

@<TRIPOS>MOLECULE
ASD01730009
  28   29    0    0    0
SMALL
NO_CHARGES


@<TRIPOS>ATOM
   1 C1             1.0728     1.4987     1.1329 C.2     
   2 C2             1.0989    -0.0078     1.1051 C.3     
   3 N3             1.0851     2.1730     0.0140 N.2     
   4 N4             1.0307     2.1577     2.3254 N.pl3   
   5 S5             2.2675     4.6698     0.2121 S.3     
   6 C6             0.9449     3.5255     0.0336 C.2     
   7 N7            -0.1808     4.1536    -0.0768 N.2     
   8 C8            -0.1561     5.4984    -0.0392 C.ar    
   9 C9             1.1343     6.0158     0.1194 C.ar    
  10 C10           -1.2344     6.4041    -0.1376 C.ar    
  11 C11           -1.0132     7.7569    -0.0786 C.ar    
  12 C12            0.2712     8.2563     0.0785 C.ar    
  13 C13            1.3391     7.3918     0.1781 C.ar    
  14 S14            0.5370     9.9967     0.1511 S.o2    
  15 O15            1.8726    10.1665    -0.3034 O.2     
  16 O16           -0.5574    10.5486    -0.5679 O.2     
  17 C17            0.4085    10.4009     1.9148 C.3     
  18 H18            2.0056    -0.3463     0.6036 H       
  19 H19            1.0838    -0.3904     2.1256 H       
  20 H20            0.2262    -0.3764     0.5659 H       
  21 H21            0.9310     1.6594     3.1516 H       
  22 H22            1.1005     3.1249     2.3477 H       
  23 H23           -2.2400     6.0298    -0.2605 H       
  24 H24           -1.8468     8.4392    -0.1554 H       
  25 H25            2.3384     7.7826     0.3007 H       
  26 H26            1.1675     9.8499     2.4701 H       
  27 H27            0.5616    11.4711     2.0544 H       
  28 H28           -0.5807    10.1248     2.2798 H       
@<TRIPOS>BOND
   1    1    2 1
   2    1    3 2
   3    1    4 1
   4    2   18 1
   5    2   19 1
   6    2   20 1
   7    3    6 1
   8    4   21 1
   9    4   22 1
  10    5    6 1
  11    5    9 1
  12    6    7 2
  13    7    8 1
  14    8    9 ar
  15    8   10 ar
  16    9   13 ar
  17   10   11 ar
  18   10   23 1
  19   11   12 ar
  20   11   24 1
  21   12   13 ar
  22   12   14 1
  23   13   25 1
  24   14   15 2
  25   14   16 2
  26   14   17 1
  27   17   26 1
  28   17   27 1
  29   17   28 1

#	End of record

