#	Name: ASD01814153
#	Creating user name:	WinNT
#	Creation time:	15. 06. 2019 19:31

#	Modifying user name:	WinNT
#	Modification time:	15. 06. 2019 19:31

#	Program:	/corina/corina34_cracker 3.40 0067  02.08.2006

@<TRIPOS>MOLECULE
ASD01814153
  56   58    0    0    0
SMALL
NO_CHARGES


@<TRIPOS>ATOM
   1 C1            -0.0180     1.4744     0.0101 C.ar    
   2 C2             0.0021    -0.0041     0.0020 C.2     
   3 N3            -1.1558    -0.6938     0.0094 N.am    
   4 O4             1.0628    -0.5974    -0.0113 O.2     
   5 C5            -1.1360    -2.1586     0.0013 C.3     
   6 C6            -2.5713    -2.6882     0.0122 C.3     
   7 N7            -2.5514    -4.1570     0.0041 N.3     
   8 C8            -3.9155    -4.7021     0.0142 C.3     
   9 C9            -1.7120    -7.3512     0.1644 C.2     
  10 O10           -0.9722    -8.0707    -0.7002 O.3     
  11 O11           -1.2751    -7.0914     1.2681 O.2     
  12 C12            0.3376    -8.5029    -0.2463 C.3     
  13 C13           -4.4522    -4.7679    -1.4186 C.3     
  14 C14           -3.6413    -5.7847    -2.2272 C.3     
  15 C15           -3.6434    -7.1286    -1.4812 C.3     
  16 N16           -2.9372    -6.9190    -0.1942 N.am    
  17 C17           -3.8986    -6.1211     0.6046 C.3     
  18 C18           -5.2699    -6.7722     0.3116 C.3     
  19 C19           -5.1010    -7.4393    -1.0696 C.3     
  20 C20            1.0242    -9.3012    -1.3564 C.3     
  21 C21            1.1789     2.1906     0.0026 C.ar    
  22 C22            1.1523     3.5753     0.0103 C.ar    
  23 C23           -0.0625     4.2467     0.0256 C.ar    
  24 C24           -1.2499     3.5379     0.0331 C.ar    
  25 C25           -1.2349     2.1584     0.0196 C.ar    
  26 O26            2.3162     4.2771     0.0034 O.3     
  27 C27            2.2144     5.7024     0.0121 C.3     
  28 H28           -2.0023    -0.2203     0.0200 H       
  29 H29           -0.6258    -2.5101    -0.8955 H       
  30 H30           -0.6088    -2.5197     0.8844 H       
  31 H31           -3.0815    -2.3367     0.9090 H       
  32 H32           -3.0985    -2.3271    -0.8709 H       
  33 H33           -2.0279    -4.5072    -0.7842 H       
  34 H34           -4.5601    -4.0618     0.6164 H       
  35 H35            0.9424    -7.6306     0.0012 H       
  36 H36            0.2268    -9.1310     0.6376 H       
  37 H37           -5.4990    -5.0712    -1.4002 H       
  38 H38           -4.3681    -3.7853    -1.8829 H       
  39 H39           -4.0929    -5.9125    -3.2110 H       
  40 H40           -2.6165    -5.4299    -2.3372 H       
  41 H41           -3.1942    -7.9265    -2.0725 H       
  42 H42           -3.6516    -6.1206     1.6663 H       
  43 H43           -5.5043    -7.5206     1.0685 H       
  44 H44           -6.0505    -6.0124     0.2732 H       
  45 H45           -5.7984    -7.0077    -1.7875 H       
  46 H46           -5.2523    -8.5160    -0.9922 H       
  47 H47            1.1350    -8.6731    -2.2403 H       
  48 H48            2.0075    -9.6256    -1.0157 H       
  49 H49            0.4194   -10.1735    -1.6040 H       
  50 H50            2.1234     1.6671    -0.0089 H       
  51 H51           -0.0804     5.3265     0.0319 H       
  52 H52           -2.1920     4.0659     0.0450 H       
  53 H53           -2.1641     1.6079     0.0256 H       
  54 H54            1.6842     6.0234     0.9087 H       
  55 H55            3.2135     6.1381     0.0052 H       
  56 H56            1.6678     6.0330    -0.8712 H       
@<TRIPOS>BOND
   1    1    2 1
   2    1   21 ar
   3    1   25 ar
   4    2    3 am
   5    2    4 2
   6    3    5 1
   7    3   28 1
   8    5    6 1
   9    5   29 1
  10    5   30 1
  11    6    7 1
  12    6   31 1
  13    6   32 1
  14    7    8 1
  15    7   33 1
  16    8   13 1
  17    8   17 1
  18    8   34 1
  19    9   10 1
  20    9   11 2
  21    9   16 am
  22   10   12 1
  23   12   20 1
  24   12   35 1
  25   12   36 1
  26   13   14 1
  27   13   37 1
  28   13   38 1
  29   14   15 1
  30   14   39 1
  31   14   40 1
  32   15   16 1
  33   15   19 1
  34   15   41 1
  35   16   17 1
  36   17   18 1
  37   17   42 1
  38   18   19 1
  39   18   43 1
  40   18   44 1
  41   19   45 1
  42   19   46 1
  43   20   47 1
  44   20   48 1
  45   20   49 1
  46   21   22 ar
  47   21   50 1
  48   22   23 ar
  49   22   26 1
  50   23   24 ar
  51   23   51 1
  52   24   25 ar
  53   24   52 1
  54   25   53 1
  55   26   27 1
  56   27   54 1
  57   27   55 1
  58   27   56 1

#	End of record

