#	Name: ASD01910798
#	Creating user name:	WinNT
#	Creation time:	15. 06. 2019 19:56

#	Modifying user name:	WinNT
#	Modification time:	15. 06. 2019 19:56

#	Program:	/corina/corina34_cracker 3.40 0067  02.08.2006

@<TRIPOS>MOLECULE
ASD01910798
  47   50    0    0    0
SMALL
NO_CHARGES


@<TRIPOS>ATOM
   1 C1             0.0619     1.6985    -0.2958 C.ar    
   2 C2             0.0152     0.3135    -0.3226 C.ar    
   3 N3             1.1466    -0.3711    -0.2890 N.ar    
   4 C4             2.3140     0.2526    -0.2305 C.ar    
   5 N5             2.3934     1.5749    -0.2036 N.ar    
   6 C6             1.2999     2.3187    -0.2345 C.ar    
   7 N7             3.4784    -0.4949    -0.1963 N.3     
   8 C8             4.6606     0.3748    -0.1328 C.3     
   9 C9             5.9110    -0.4837     0.0857 C.3     
  10 N10            5.9555    -1.5186    -0.9585 N.am    
  11 C11            4.7555    -2.3412    -1.1745 C.3     
  12 C12            3.5506    -1.4096    -1.3434 C.3     
  13 C13            7.0665    -1.7084    -1.6974 C.2     
  14 C14            7.1353    -2.8345    -2.6531 C.ar    
  15 O15            8.0120    -0.9539    -1.5781 O.2     
  16 C16            7.7551    -2.6736    -3.8939 C.ar    
  17 N17            7.8210    -3.6709    -4.7523 N.ar    
  18 C18            7.3121    -4.8565    -4.4870 C.ar    
  19 C19            6.6734    -5.1064    -3.2684 C.ar    
  20 C20            6.5861    -4.0770    -2.3254 C.ar    
  21 C21            6.1219    -6.3979    -2.9881 C.1     
  22 C22            5.6699    -7.4567    -2.7583 C.1     
  23 C23            5.1184    -8.7482    -2.4779 C.ar    
  24 C24            4.4817    -8.9899    -1.2578 C.ar    
  25 C25            3.9525   -10.2361    -0.9950 C.ar    
  26 C26            4.0510   -11.2459    -1.9361 C.ar    
  27 C27            4.6805   -11.0140    -3.1463 C.ar    
  28 C28            5.2093    -9.7712    -3.4255 C.ar    
  29 H29           -0.8465     2.2818    -0.3266 H       
  30 H30           -0.9334    -0.2006    -0.3698 H       
  31 H31            1.3710     3.3961    -0.2127 H       
  32 H32            4.7570     0.9264    -1.0680 H       
  33 H33            4.5521     1.0765     0.6942 H       
  34 H34            6.8010     0.1420     0.0192 H       
  35 H35            5.8642    -0.9556     1.0671 H       
  36 H36            4.8816    -2.9435    -2.0742 H       
  37 H37            4.5977    -2.9916    -0.3142 H       
  38 H38            2.6371    -2.0020    -1.3943 H       
  39 H39            3.6625    -0.8332    -2.2618 H       
  40 H40            8.1863    -1.7181    -4.1538 H       
  41 H41            7.3889    -5.6457    -5.2203 H       
  42 H42            6.1000    -4.2355    -1.3740 H       
  43 H43            4.4044    -8.2029    -0.5222 H       
  44 H44            3.4604   -10.4245    -0.0522 H       
  45 H45            3.6348   -12.2198    -1.7248 H       
  46 H46            4.7540   -11.8069    -3.8760 H       
  47 H47            5.7001    -9.5915    -4.3706 H       
@<TRIPOS>BOND
   1    1    2 ar
   2    1    6 ar
   3    1   29 1
   4    2    3 ar
   5    2   30 1
   6    3    4 ar
   7    4    5 ar
   8    4    7 1
   9    5    6 ar
  10    6   31 1
  11    7    8 1
  12    7   12 1
  13    8    9 1
  14    8   32 1
  15    8   33 1
  16    9   10 1
  17    9   34 1
  18    9   35 1
  19   10   11 1
  20   10   13 am
  21   11   12 1
  22   11   36 1
  23   11   37 1
  24   12   38 1
  25   12   39 1
  26   13   14 1
  27   13   15 2
  28   14   16 ar
  29   14   20 ar
  30   16   17 ar
  31   16   40 1
  32   17   18 ar
  33   18   19 ar
  34   18   41 1
  35   19   20 ar
  36   19   21 1
  37   20   42 1
  38   21   22 3
  39   22   23 1
  40   23   24 ar
  41   23   28 ar
  42   24   25 ar
  43   24   43 1
  44   25   26 ar
  45   25   44 1
  46   26   27 ar
  47   26   45 1
  48   27   28 ar
  49   27   46 1
  50   28   47 1

#	End of record

