#	Name: ASD01882769
#	Creating user name:	WinNT
#	Creation time:	15. 06. 2019 19:45

#	Modifying user name:	WinNT
#	Modification time:	15. 06. 2019 19:45

#	Program:	/corina/corina34_cracker 3.40 0067  02.08.2006

@<TRIPOS>MOLECULE
ASD01882769
  64   65    0    0    0
SMALL
NO_CHARGES


@<TRIPOS>ATOM
   1 C1            -0.0166     1.3739     0.0096 C.ar    
   2 C2             0.0021    -0.0041     0.0020 C.ar    
   3 C3             1.2214    -0.6861    -0.0133 C.ar    
   4 C4             2.4208     0.0327    -0.0210 C.ar    
   5 C5             2.3947     1.4132    -0.0133 C.ar    
   6 C6             1.1740     2.0874     0.0021 C.ar    
   7 O7             1.1501     3.4451     0.0096 O.3     
   8 C8            -0.1343     4.0712     0.0253 C.3     
   9 C9             0.0394     5.5913     0.0318 C.3     
  10 C10           -1.3358     6.2617     0.0486 C.3     
  11 C11           -1.1620     7.7818     0.0552 C.3     
  12 O12           -2.4464     8.4080     0.0709 O.3     
  13 C13           -2.4703     9.7644     0.0784 C.ar    
  14 C14           -3.7125    11.8172     0.1077 C.ar    
  15 C15           -3.6857    10.4332     0.0994 C.ar    
  16 C16           -1.2745    10.4785     0.0708 C.ar    
  17 C17           -1.2849    11.8427     0.0792 C.ar    
  18 C18           -2.5033    12.5355     0.0951 C.ar    
  19 C19           -4.9754     9.6538     0.1128 C.3     
  20 O20           -4.8973    12.4764     0.1286 O.3     
  21 C21           -2.5172    14.0003     0.1031 C.2     
  22 O22           -3.5736    14.5969     0.1206 O.2     
  23 C23           -1.2194    14.7662     0.0896 C.3     
  24 C24           -1.5132    16.2677     0.1016 C.3     
  25 C25           -2.3019    16.6230     1.3636 C.3     
  26 O26            3.5594     2.1154    -0.0203 O.3     
  27 C27           -0.1956    17.0453     0.0879 C.3     
  28 C28           -2.3358    16.6363    -1.1346 C.3     
  29 C29            4.7723     1.3600    -0.0355 C.3     
  30 C30            1.2434    -2.1606    -0.0210 C.2     
  31 O31            0.0867    -2.8518    -0.0132 O.3     
  32 O32            2.3046    -2.7523    -0.0343 O.2     
  33 H33           -0.9599     1.8998     0.0169 H       
  34 H34           -0.9258    -0.5568     0.0083 H       
  35 H35            3.3654    -0.4907    -0.0325 H       
  36 H36           -0.6945     3.7734    -0.8610 H       
  37 H37           -0.6775     3.7638     0.9189 H       
  38 H38            0.5997     5.8892     0.9181 H       
  39 H39            0.5827     5.8988    -0.8617 H       
  40 H40           -1.8960     5.9639    -0.8377 H       
  41 H41           -1.8790     5.9543     0.9422 H       
  42 H42           -0.6018     8.0797     0.9415 H       
  43 H43           -0.6188     8.0893    -0.8384 H       
  44 H44           -0.3333     9.9490     0.0586 H       
  45 H45           -0.3534    12.3893     0.0740 H       
  46 H46           -5.3005     9.4717    -0.9115 H       
  47 H47           -4.8190     8.7013     0.6192 H       
  48 H48           -5.7395    10.2246     0.6405 H       
  49 H49           -5.2282    12.6626     1.0179 H       
  50 H50           -0.6333    14.5036     0.9703 H       
  51 H51           -0.6575    14.5131    -0.8095 H       
  52 H52           -1.7158    16.3603     2.2443 H       
  53 H53           -2.5112    17.6926     1.3721 H       
  54 H54           -3.2406    16.0690     1.3733 H       
  55 H55            0.3663    16.7922    -0.8112 H       
  56 H56           -0.4049    18.1150     0.0964 H       
  57 H57            0.3905    16.7827     0.9686 H       
  58 H58           -3.2745    16.0823    -1.1249 H       
  59 H59           -2.5451    17.7060    -1.1261 H       
  60 H60           -1.7739    16.3832    -2.0337 H       
  61 H61            4.8172     0.7270     0.8507 H       
  62 H62            4.8009     0.7366    -0.9291 H       
  63 H63            5.6239     2.0403    -0.0397 H       
  64 H64            0.1517    -3.8166    -0.0186 H       
@<TRIPOS>BOND
   1    1    2 ar
   2    1    6 ar
   3    1   33 1
   4    2    3 ar
   5    2   34 1
   6    3    4 ar
   7    3   30 1
   8    4    5 ar
   9    4   35 1
  10    5    6 ar
  11    5   26 1
  12    6    7 1
  13    7    8 1
  14    8    9 1
  15    8   36 1
  16    8   37 1
  17    9   10 1
  18    9   38 1
  19    9   39 1
  20   10   11 1
  21   10   40 1
  22   10   41 1
  23   11   12 1
  24   11   42 1
  25   11   43 1
  26   12   13 1
  27   13   16 ar
  28   13   15 ar
  29   14   15 ar
  30   14   18 ar
  31   14   20 1
  32   15   19 1
  33   16   17 ar
  34   16   44 1
  35   17   18 ar
  36   17   45 1
  37   18   21 1
  38   19   46 1
  39   19   47 1
  40   19   48 1
  41   20   49 1
  42   21   22 2
  43   21   23 1
  44   23   24 1
  45   23   50 1
  46   23   51 1
  47   24   25 1
  48   24   27 1
  49   24   28 1
  50   25   52 1
  51   25   53 1
  52   25   54 1
  53   26   29 1
  54   27   55 1
  55   27   56 1
  56   27   57 1
  57   28   58 1
  58   28   59 1
  59   28   60 1
  60   29   61 1
  61   29   62 1
  62   29   63 1
  63   30   31 1
  64   30   32 2
  65   31   64 1

#	End of record

