#	Name: ASD02560308
#	Creating user name:	WinNT
#	Creation time:	15. 06. 2019 20:25

#	Modifying user name:	WinNT
#	Modification time:	15. 06. 2019 20:25

#	Program:	/corina/corina34_cracker 3.40 0067  02.08.2006

@<TRIPOS>MOLECULE
ASD02560308
  44   47    0    0    0
SMALL
NO_CHARGES


@<TRIPOS>ATOM
   1 C1            -0.0161     1.3388     0.0094 C.2     
   2 O2             0.0021    -0.0041     0.0020 O.3     
   3 C3            -1.2696    -0.4441     0.0118 C.2     
   4 C4            -2.0758     0.6814     0.0255 C.2     
   5 N5            -1.2431     1.7608     0.0290 N.2     
   6 N6            -1.6878    -1.7583     0.0083 N.pl3   
   7 C7             1.2046     2.2224     0.0025 C.3     
   8 C8            -0.7010    -2.8410    -0.0069 C.3     
   9 C9            -1.4235    -4.1897    -0.0077 C.3     
  10 C10           -0.3937    -5.3359    -0.0236 C.3     
  11 C11            1.6251     2.5093     1.4209 C.ar    
  12 C12            1.2066     3.6461     2.0419 C.ar    
  13 C13            2.4463     1.6021     2.1113 C.ar    
  14 C14            2.8315     1.8893     3.4448 C.ar    
  15 C15            2.3845     3.0756     4.0506 C.ar    
  16 C16            1.5851     3.9284     3.3528 C.ar    
  17 C17            2.8930     0.4152     1.5055 C.ar    
  18 C18            3.6872    -0.4402     2.2052 C.ar    
  19 C19            4.0656    -0.1580     3.5167 C.ar    
  20 C20            3.6527     0.9816     4.1354 C.ar    
  21 C21           -3.5075     0.7068     0.0393 C.1     
  22 N22           -4.6432     0.7268     0.0502 N.1     
  23 O23           -2.1996    -4.3292     1.1942 O.3     
  24 C24           -2.1721    -5.7272     1.5538 C.3     
  25 C25           -0.7108    -6.1487     1.2552 C.3     
  26 H26           -2.6353    -1.9658     0.0159 H       
  27 H27            2.0158     1.7173    -0.5218 H       
  28 H28            0.9722     3.1591    -0.5041 H       
  29 H29           -0.0848    -2.7584    -0.9021 H       
  30 H30           -0.0683    -2.7684     0.8777 H       
  31 H31           -2.0721    -4.2620    -0.8808 H       
  32 H32           -0.5251    -5.9546    -0.9113 H       
  33 H33            0.6204    -4.9383     0.0187 H       
  34 H34            0.5720     4.3398     1.5104 H       
  35 H35            2.6700     3.3076     5.0660 H       
  36 H36            1.2432     4.8398     3.8207 H       
  37 H37            2.6073     0.1830     0.4902 H       
  38 H38            4.0291    -1.3517     1.7374 H       
  39 H39            4.6960    -0.8543     4.0499 H       
  40 H40            3.9542     1.1871     5.1519 H       
  41 H41           -2.4001    -5.8559     2.6119 H       
  42 H42           -2.8690    -6.2957     0.9380 H       
  43 H43           -0.6467    -7.2194     1.0614 H       
  44 H44           -0.0486    -5.8623     2.0723 H       
@<TRIPOS>BOND
   1    1    2 1
   2    1    7 1
   3    1    5 2
   4    2    3 1
   5    3    4 2
   6    3    6 1
   7    4    5 1
   8    4   21 1
   9    6    8 1
  10    6   26 1
  11    7   11 1
  12    7   27 1
  13    7   28 1
  14    8    9 1
  15    8   29 1
  16    8   30 1
  17    9   10 1
  18    9   23 1
  19    9   31 1
  20   10   25 1
  21   10   32 1
  22   10   33 1
  23   11   12 ar
  24   11   13 ar
  25   12   16 ar
  26   12   34 1
  27   13   14 ar
  28   13   17 ar
  29   14   15 ar
  30   14   20 ar
  31   15   16 ar
  32   15   35 1
  33   16   36 1
  34   17   18 ar
  35   17   37 1
  36   18   19 ar
  37   18   38 1
  38   19   20 ar
  39   19   39 1
  40   20   40 1
  41   21   22 3
  42   23   24 1
  43   24   25 1
  44   24   41 1
  45   24   42 1
  46   25   43 1
  47   25   44 1

#	End of record

