#	Name: ASD01208754
#	Creating user name:	WinNT
#	Creation time:	15. 06. 2019 19:10

#	Modifying user name:	WinNT
#	Modification time:	15. 06. 2019 19:10

#	Program:	/corina/corina34_cracker 3.40 0067  02.08.2006

@<TRIPOS>MOLECULE
ASD01208754
  55   58    0    0    0
SMALL
NO_CHARGES


@<TRIPOS>ATOM
   1 C1            -0.2547     1.7795     0.5331 C.2     
   2 C2            -0.2231     0.3186     0.3100 C.ar    
   3 C3             0.9459    -0.2951    -0.1423 C.ar    
   4 C4             0.9712    -1.6641    -0.3501 C.ar    
   5 C5            -0.1636    -2.4254    -0.1097 C.ar    
   6 C6            -1.3280    -1.8195     0.3396 C.ar    
   7 C7            -1.3601    -0.4514     0.5564 C.ar    
   8 O8             0.7385     2.4482     0.3225 O.2     
   9 N9            -1.3863     2.3710     0.9646 N.am    
  10 O10           -2.4368    -2.5697     0.5731 O.3     
  11 C11           -3.4338    -2.5390    -0.3498 C.ar    
  12 C12           -3.2807    -1.7978    -1.5100 C.ar    
  13 C13           -4.3062    -1.7696    -2.4546 C.ar    
  14 C14           -5.4805    -2.4886    -2.2246 C.ar    
  15 C15           -5.6228    -3.2237    -1.0656 C.ar    
  16 C16           -4.6031    -3.2552    -0.1322 C.ar    
  17 O17           -5.0553    -0.8642    -4.6877 O.3     
  18 C18           -4.1505    -0.9804    -3.6952 C.2     
  19 N19           -3.1061    -0.2623    -4.0350 N.2     
  20 N20           -3.3220     0.2858    -5.1789 N.2     
  21 C21           -4.5032    -0.0581    -5.6108 C.2     
  22 C22           -5.1348     0.3700    -6.9103 C.3     
  23 O23            2.1091    -2.2627    -0.7905 O.3     
  24 C24            3.1152    -4.0140    -2.1175 C.3     
  25 C25            2.0320    -3.6560    -1.0980 C.3     
  26 C26            2.2432    -4.4725     0.1785 C.3     
  27 O27            4.4038    -3.8276    -1.5286 O.3     
  28 C28            5.4921    -4.1359    -2.4019 C.3     
  29 S29           -2.7784     4.6221     1.7180 S.3     
  30 C30           -1.4160     3.7442     1.1743 C.2     
  31 N31           -0.4147     4.5453     0.9867 N.2     
  32 C32           -0.6186     5.8259     1.2367 C.2     
  33 C33           -1.8523     6.1194     1.6555 C.2     
  34 Cl34          -2.4406     7.7003     2.0660 Cl      
  35 H35            1.8294     0.2968    -0.3304 H       
  36 H36           -0.1405    -3.4928    -0.2731 H       
  37 H37           -2.2654     0.0189     0.9107 H       
  38 H38           -2.1799     1.8381     1.1287 H       
  39 H39           -2.3701    -1.2433    -1.6823 H       
  40 H40           -6.2773    -2.4693    -2.9533 H       
  41 H41           -6.5319    -3.7793    -0.8887 H       
  42 H42           -4.7184    -3.8356     0.7713 H       
  43 H43           -5.6972     1.2907    -6.7549 H       
  44 H44           -4.3563     0.5408    -7.6538 H       
  45 H45           -5.8079    -0.4119    -7.2621 H       
  46 H46            3.0007    -5.0552    -2.4189 H       
  47 H47            3.0186    -3.3700    -2.9916 H       
  48 H48            1.0509    -3.8822    -1.5158 H       
  49 H49            2.1844    -5.5353    -0.0560 H       
  50 H50            3.2243    -4.2464     0.5963 H       
  51 H51            1.4715    -4.2175     0.9048 H       
  52 H52            6.4347    -3.9689    -1.8808 H       
  53 H53            5.4268    -5.1797    -2.7092 H       
  54 H54            5.4448    -3.4945    -3.2819 H       
  55 H55            0.1499     6.5747     1.1132 H       
@<TRIPOS>BOND
   1    1    2 1
   2    1    8 2
   3    1    9 am
   4    2    3 ar
   5    2    7 ar
   6    3    4 ar
   7    3   35 1
   8    4    5 ar
   9    4   23 1
  10    5    6 ar
  11    5   36 1
  12    6    7 ar
  13    6   10 1
  14    7   37 1
  15    9   30 1
  16    9   38 1
  17   10   11 1
  18   11   12 ar
  19   11   16 ar
  20   12   13 ar
  21   12   39 1
  22   13   14 ar
  23   13   18 1
  24   14   15 ar
  25   14   40 1
  26   15   16 ar
  27   15   41 1
  28   16   42 1
  29   17   18 1
  30   17   21 1
  31   18   19 2
  32   19   20 1
  33   20   21 2
  34   21   22 1
  35   22   43 1
  36   22   44 1
  37   22   45 1
  38   23   25 1
  39   24   25 1
  40   24   27 1
  41   24   46 1
  42   24   47 1
  43   25   26 1
  44   25   48 1
  45   26   49 1
  46   26   50 1
  47   26   51 1
  48   27   28 1
  49   28   52 1
  50   28   53 1
  51   28   54 1
  52   29   30 1
  53   29   33 1
  54   30   31 2
  55   31   32 1
  56   32   33 2
  57   32   55 1
  58   33   34 1

#	End of record

