#	Name: ASD03090025
#	Creating user name:	WinNT
#	Creation time:	15. 06. 2019 20:28

#	Modifying user name:	WinNT
#	Modification time:	15. 06. 2019 20:28

#	Program:	/corina/corina34_cracker 3.40 0067  02.08.2006

@<TRIPOS>MOLECULE
ASD03090025
  44   47    0    0    0
SMALL
NO_CHARGES


@<TRIPOS>ATOM
   1 C1             0.4623     0.4231     0.2013 C.ar    
   2 C2             0.6963    -0.9421     0.1256 C.ar    
   3 C3             1.9942    -1.4103     0.0127 C.ar    
   4 C4             3.0635    -0.5260    -0.0250 C.ar    
   5 C5             2.8273     0.8309     0.0604 C.ar    
   6 C6             1.5256     1.3005     0.1682 C.ar    
   7 O7            -0.3438    -1.8160     0.1626 O.3     
   8 C8             4.4452    -1.1067    -0.1719 C.3     
   9 C9             5.5193    -0.0773     0.1778 C.3     
  10 C10            5.2033     1.2164    -0.5723 C.3     
  11 C11            3.9460     1.8316     0.0556 C.3     
  12 C12            6.3139     2.2365    -0.4288 C.3     
  13 C13            5.9034     3.4578    -1.2981 C.3     
  14 C14            4.7173     4.1275    -0.6364 C.3     
  15 C15            3.5489     3.1233    -0.6446 C.3     
  16 C16            7.6618     1.8559    -1.0509 C.3     
  17 C17            8.3367     3.2344    -1.2896 C.3     
  18 C18            7.1895     4.2707    -1.3913 C.3     
  19 C19            5.5091     2.9816    -2.6976 C.3     
  20 O20            7.2662     5.2020    -0.3101 O.3     
  21 H21           -0.5477     0.7971     0.2812 H       
  22 H22            2.1765    -2.4732    -0.0463 H       
  23 H23            1.3437     2.3635     0.2264 H       
  24 H24           -0.7081    -2.0310    -0.7070 H       
  25 H25            4.5441    -1.9654     0.4922 H       
  26 H26            4.5870    -1.4348    -1.2016 H       
  27 H27            5.5137     0.1096     1.2517 H       
  28 H28            6.4978    -0.4490    -0.1262 H       
  29 H29            5.0198     0.9966    -1.6241 H       
  30 H30            4.1766     2.0819     1.0911 H       
  31 H31            6.4293     2.5298     0.6146 H       
  32 H32            4.9686     4.3938     0.3903 H       
  33 H33            4.4397     5.0222    -1.1937 H       
  34 H34            3.2723     2.9025    -1.6755 H       
  35 H35            2.6942     3.5625    -0.1303 H       
  36 H36            8.2497     1.2535    -0.3584 H       
  37 H37            7.5162     1.3293    -1.9941 H       
  38 H38            8.9904     3.4808    -0.4529 H       
  39 H39            8.9074     3.2157    -2.2180 H       
  40 H40            7.2371     4.7944    -2.3460 H       
  41 H41            4.6161     2.3600    -2.6318 H       
  42 H42            5.3049     3.8449    -3.3311 H       
  43 H43            6.3253     2.4007    -3.1272 H       
  44 H44            8.0829     5.7194    -0.2939 H       
@<TRIPOS>BOND
   1    1    2 ar
   2    1    6 ar
   3    1   21 1
   4    2    3 ar
   5    2    7 1
   6    3    4 ar
   7    3   22 1
   8    4    5 ar
   9    4    8 1
  10    5    6 ar
  11    5   11 1
  12    6   23 1
  13    7   24 1
  14    8    9 1
  15    8   25 1
  16    8   26 1
  17    9   10 1
  18    9   27 1
  19    9   28 1
  20   10   11 1
  21   10   12 1
  22   10   29 1
  23   11   15 1
  24   11   30 1
  25   12   13 1
  26   12   16 1
  27   12   31 1
  28   13   14 1
  29   13   19 1
  30   13   18 1
  31   14   15 1
  32   14   32 1
  33   14   33 1
  34   15   34 1
  35   15   35 1
  36   16   17 1
  37   16   36 1
  38   16   37 1
  39   17   18 1
  40   17   38 1
  41   17   39 1
  42   18   20 1
  43   18   40 1
  44   19   41 1
  45   19   42 1
  46   19   43 1
  47   20   44 1

#	End of record

