#	Name: ASD01230749
#	Creating user name:	WinNT
#	Creation time:	15. 06. 2019 19:15

#	Modifying user name:	WinNT
#	Modification time:	15. 06. 2019 19:15

#	Program:	/corina/corina34_cracker 3.40 0067  02.08.2006

@<TRIPOS>MOLECULE
ASD01230749
  41   43    0    0    0
SMALL
NO_CHARGES


@<TRIPOS>ATOM
   1 C1            -0.0187     1.5269     0.0104 C.3     
   2 C2             0.0021    -0.0041     0.0020 C.3     
   3 C3            -1.4090    -0.5744    -0.0210 C.3     
   4 C4            -2.4278     0.3518     0.6286 C.3     
   5 N5            -1.8047     1.1961     1.6505 N.pl3   
   6 C6            -0.7253     1.9576     1.2844 C.2     
   7 C7            -2.3028     1.1928     3.0237 C.3     
   8 C8            -2.5699     2.6304     3.4725 C.3     
   9 S9            -1.0683     3.6191     3.2460 S.o2    
  10 N10           -0.3266     2.9907     1.9165 N.am    
  11 C11            1.3909     2.0597    -0.0002 C.ar    
  12 C12            1.8149     2.8696    -1.0375 C.ar    
  13 O13           -1.4015     4.9462     2.8626 O.2     
  14 O14           -0.1502     3.3757     4.3030 O.2     
  15 C15            2.2564     1.7424     1.0304 C.ar    
  16 C16            3.5490     2.2299     1.0232 C.ar    
  17 C17            3.9784     3.0385    -0.0191 C.ar    
  18 C18            3.1065     3.3593    -1.0495 C.ar    
  19 O19            5.2493     3.5196    -0.0283 O.3     
  20 S20            6.2493     2.6134    -0.7319 S.o2    
  21 C21            5.9028     2.8420    -2.4978 C.3     
  22 F22            6.0863     4.1863    -2.8388 F       
  23 F23            6.7736     2.0469    -3.2506 F       
  24 F24            4.5814     2.4691    -2.7658 F       
  25 O25            7.5163     3.1629    -0.3971 O.2     
  26 O26            5.8865     1.3032    -0.3181 O.2     
  27 H27           -0.5615     1.8958    -0.8598 H       
  28 H28            0.5412    -0.3491    -0.8803 H       
  29 H29            0.5163    -0.3592     0.8951 H       
  30 H30           -1.7015    -0.7481    -1.0566 H       
  31 H31           -1.4122    -1.5274     0.5080 H       
  32 H32           -2.8715     0.9875    -0.1375 H       
  33 H33           -3.2116    -0.2482     1.0909 H       
  34 H34           -3.2281     0.6188     3.0732 H       
  35 H35           -1.5588     0.7399     3.6790 H       
  36 H36           -3.3776     3.0537     2.8754 H       
  37 H37           -2.8538     2.6361     4.5249 H       
  38 H38            1.1357     3.1193    -1.8392 H       
  39 H39            1.9216     1.1132     1.8418 H       
  40 H40            4.2245     1.9821     1.8286 H       
  41 H41            3.4384     3.9885    -1.8621 H       
@<TRIPOS>BOND
   1    1    2 1
   2    1   11 1
   3    1    6 1
   4    1   27 1
   5    2    3 1
   6    2   28 1
   7    2   29 1
   8    3    4 1
   9    3   30 1
  10    3   31 1
  11    4    5 1
  12    4   32 1
  13    4   33 1
  14    5    6 1
  15    5    7 1
  16    6   10 2
  17    7    8 1
  18    7   34 1
  19    7   35 1
  20    8    9 1
  21    8   36 1
  22    8   37 1
  23    9   10 am
  24    9   13 2
  25    9   14 2
  26   11   12 ar
  27   11   15 ar
  28   12   18 ar
  29   12   38 1
  30   15   16 ar
  31   15   39 1
  32   16   17 ar
  33   16   40 1
  34   17   18 ar
  35   17   19 1
  36   18   41 1
  37   19   20 1
  38   20   21 1
  39   20   25 2
  40   20   26 2
  41   21   22 1
  42   21   23 1
  43   21   24 1

#	End of record

