#	Name: ASD00170512
#	Creating user name:	WinNT
#	Creation time:	15. 06. 2019 18:32

#	Modifying user name:	WinNT
#	Modification time:	15. 06. 2019 18:32

#	Program:	/corina/corina34_cracker 3.40 0067  02.08.2006

@<TRIPOS>MOLECULE
ASD00170512
  53   56    0    0    0
SMALL
NO_CHARGES


@<TRIPOS>ATOM
   1 C1            -0.0384     1.9730     1.0217 C.ar    
   2 C2            -0.0868     0.5970     0.8958 C.ar    
   3 C3             1.0791    -0.1239     0.7260 C.ar    
   4 C4             2.3010     0.5350     0.6817 C.ar    
   5 C5             2.3459     1.9178     0.8085 C.ar    
   6 C6             1.1766     2.6324     0.9781 C.ar    
   7 N7             3.4819    -0.1909     0.5105 N.3     
   8 C8             3.2042    -1.6297     0.3991 C.3     
   9 C9             4.5116    -2.3798     0.1337 C.3     
  10 N10            5.4575    -2.1120     1.2260 N.3     
  11 C11            5.7352    -0.6732     1.3374 C.3     
  12 C12            4.4278     0.0770     1.6028 C.3     
  13 C13            6.6995    -2.8754     1.0459 C.3     
  14 C14            7.7310    -2.3972     2.0351 C.2     
  15 C15            8.7042    -1.5554     1.7236 C.2     
  16 S16            9.7136    -1.2207     3.1190 S.3     
  17 C17            8.7922    -2.2411     4.1265 C.2     
  18 C18            7.7541    -2.8073     3.4234 C.2     
  19 C19            6.7846    -3.7308     4.0123 C.2     
  20 O20            5.7421    -3.3052     4.4757 O.2     
  21 C21            7.0706    -5.1813     4.0449 C.ar    
  22 C22            6.1999    -6.0526     4.7019 C.ar    
  23 C23            6.4718    -7.4043     4.7289 C.ar    
  24 C24            7.6062    -7.8979     4.1060 C.ar    
  25 C25            8.4738    -7.0383     3.4526 C.ar    
  26 C26            8.2093    -5.6854     3.4139 C.ar    
  27 Cl27           7.9422    -9.6006     4.1447 Cl      
  28 N28            9.0488    -2.4641     5.4641 N.pl3   
  29 C29            1.2243     4.1323     1.1153 C.3     
  30 F30            1.1246     4.7198    -0.1505 F       
  31 F31            0.1589     4.5617     1.9139 F       
  32 F32            2.4337     4.5080     1.7098 F       
  33 H33           -0.9519     2.5347     1.1500 H       
  34 H34           -1.0372     0.0852     0.9307 H       
  35 H35            1.0407    -1.1988     0.6280 H       
  36 H36            3.2944     2.4333     0.7745 H       
  37 H37            2.7619    -1.9877     1.3288 H       
  38 H38            2.5115    -1.8037    -0.4243 H       
  39 H39            4.3123    -3.4501     0.0795 H       
  40 H40            4.9401    -2.0412    -0.8097 H       
  41 H41            6.4279    -0.4992     2.1608 H       
  42 H42            6.1776    -0.3151     0.4077 H       
  43 H43            4.6272     1.1472     1.6570 H       
  44 H44            3.9993    -0.2617     2.5461 H       
  45 H45            6.5020    -3.9347     1.2105 H       
  46 H46            7.0726    -2.7286     0.0324 H       
  47 H47            8.8566    -1.1319     0.7419 H       
  48 H48            5.3153    -5.6688     5.1882 H       
  49 H49            5.7991    -8.0792     5.2372 H       
  50 H50            9.3567    -7.4289     2.9686 H       
  51 H51            8.8863    -5.0161     2.9038 H       
  52 H52            9.8428    -2.0876     5.8749 H       
  53 H53            8.4352    -2.9973     5.9933 H       
@<TRIPOS>BOND
   1    1    2 ar
   2    1    6 ar
   3    1   33 1
   4    2    3 ar
   5    2   34 1
   6    3    4 ar
   7    3   35 1
   8    4    5 ar
   9    4    7 1
  10    5    6 ar
  11    5   36 1
  12    6   29 1
  13    7    8 1
  14    7   12 1
  15    8    9 1
  16    8   37 1
  17    8   38 1
  18    9   10 1
  19    9   39 1
  20    9   40 1
  21   10   11 1
  22   10   13 1
  23   11   12 1
  24   11   41 1
  25   11   42 1
  26   12   43 1
  27   12   44 1
  28   13   14 1
  29   13   45 1
  30   13   46 1
  31   14   15 2
  32   14   18 1
  33   15   16 1
  34   15   47 1
  35   16   17 1
  36   17   18 2
  37   17   28 1
  38   18   19 1
  39   19   20 2
  40   19   21 1
  41   21   22 ar
  42   21   26 ar
  43   22   23 ar
  44   22   48 1
  45   23   24 ar
  46   23   49 1
  47   24   25 ar
  48   24   27 1
  49   25   26 ar
  50   25   50 1
  51   26   51 1
  52   28   52 1
  53   28   53 1
  54   29   30 1
  55   29   31 1
  56   29   32 1

#	End of record

