#	Name: ASD01912709
#	Creating user name:	WinNT
#	Creation time:	15. 06. 2019 20:00

#	Modifying user name:	WinNT
#	Modification time:	15. 06. 2019 20:00

#	Program:	/corina/corina34_cracker 3.40 0067  02.08.2006

@<TRIPOS>MOLECULE
ASD01912709
  41   44    0    0    0
SMALL
NO_CHARGES


@<TRIPOS>ATOM
   1 C1            -0.0049     1.4131     0.0505 C.2     
   2 N2             0.0267     0.0431     0.0042 N.pl3   
   3 C3            -1.1710    -0.6557    -0.0266 C.2     
   4 C4            -2.3378    -0.0246    -0.0122 C.2     
   5 N5            -2.4239     1.3546     0.0341 N.am    
   6 C6            -1.2971     2.1005     0.0718 C.2     
   7 C7             1.3091     1.8418     0.0724 C.2     
   8 C8             2.0738     0.6769     0.0372 C.2     
   9 N9             1.2528    -0.3457    -0.0021 N.2     
  10 O10           -1.3556     3.3162     0.1128 O.2     
  11 C11           -3.6735     1.9761     0.0473 C.ar    
  12 C12            3.5790     0.6049     0.0428 C.3     
  13 O13            4.1190     1.9271     0.0902 O.3     
  14 C14            5.4733     2.0404     0.1012 C.ar    
  15 C15            6.0652     3.2943     0.1466 C.ar    
  16 C16            7.4420     3.4068     0.1577 C.ar    
  17 C17            8.2300     2.2711     0.1235 C.ar    
  18 C18            7.6424     1.0203     0.0778 C.ar    
  19 C19            6.2660     0.9023     0.0728 C.ar    
  20 C20           -4.3295     2.1762     1.2561 C.ar    
  21 C21           -5.5680     2.7941     1.2563 C.ar    
  22 C22           -5.3977     2.9655    -1.1242 C.ar    
  23 N23           -4.2194     2.3739    -1.0910 N.ar    
  24 C24           -6.1099     3.1924     0.0402 C.ar    
  25 C25           -3.7008     1.7259     2.5495 C.3     
  26 F26           -7.3162     3.7989    -0.0042 F       
  27 H27           -1.1534    -1.7349    -0.0635 H       
  28 H28           -3.2478    -0.6056    -0.0377 H       
  29 H29            1.6663     2.8604     0.1089 H       
  30 H30            3.9127     0.0446     0.9162 H       
  31 H31            3.9222     0.1045    -0.8628 H       
  32 H32            5.4502     4.1817     0.1729 H       
  33 H33            7.9034     4.3827     0.1926 H       
  34 H34            9.3062     2.3612     0.1323 H       
  35 H35            8.2600     0.1348     0.0505 H       
  36 H36            5.8075    -0.0750     0.0371 H       
  37 H37           -6.1011     2.9625     2.1803 H       
  38 H38           -5.8117     3.2769    -2.0718 H       
  39 H39           -3.0144     2.4937     2.9065 H       
  40 H40           -4.4797     1.5604     3.2938 H       
  41 H41           -3.1535     0.7979     2.3838 H       
@<TRIPOS>BOND
   1    1    2 1
   2    1    7 2
   3    1    6 1
   4    2    3 1
   5    2    9 1
   6    3    4 2
   7    3   27 1
   8    4    5 1
   9    4   28 1
  10    5    6 am
  11    5   11 1
  12    6   10 2
  13    7    8 1
  14    7   29 1
  15    8    9 2
  16    8   12 1
  17   11   20 ar
  18   11   23 ar
  19   12   13 1
  20   12   30 1
  21   12   31 1
  22   13   14 1
  23   14   15 ar
  24   14   19 ar
  25   15   16 ar
  26   15   32 1
  27   16   17 ar
  28   16   33 1
  29   17   18 ar
  30   17   34 1
  31   18   19 ar
  32   18   35 1
  33   19   36 1
  34   20   21 ar
  35   20   25 1
  36   21   24 ar
  37   21   37 1
  38   22   23 ar
  39   22   24 ar
  40   22   38 1
  41   24   26 1
  42   25   39 1
  43   25   40 1
  44   25   41 1

#	End of record

