#	Name: ASD01917595
#	Creating user name:	WinNT
#	Creation time:	15. 06. 2019 20:09

#	Modifying user name:	WinNT
#	Modification time:	15. 06. 2019 20:09

#	Program:	/corina/corina34_cracker 3.40 0067  02.08.2006

@<TRIPOS>MOLECULE
ASD01917595
  23   22    0    0    0
SMALL
NO_CHARGES


@<TRIPOS>ATOM
   1 C1            -0.0184     1.5028     0.0103 C.2     
   2 C2             0.0021    -0.0041     0.0020 C.3     
   3 C3             1.4513    -0.4944    -0.0145 C.3     
   4 O4             1.0197     2.1211     0.0037 O.2     
   5 O5            -1.1898     2.1580     0.0194 O.3     
   6 C6            -0.7002    -0.5305     1.2552 C.3     
   7 C7            -0.7241    -0.5171    -1.2431 C.3     
   8 O8             1.4710    -1.9462    -0.0224 O.3     
   9 C9             2.6751    -2.5393    -0.0371 C.2     
  10 O10            3.6793    -1.8675    -0.0431 O.2     
  11 C11            2.7743    -4.0430    -0.0461 C.3     
  12 H12            1.9516    -0.1193    -0.9073 H       
  13 H13            1.9686    -0.1289     0.8726 H       
  14 H14           -1.1523     3.1243     0.0245 H       
  15 H15           -1.7327    -0.1812     1.2669 H       
  16 H16           -0.6854    -1.6204     1.2492 H       
  17 H17           -0.1829    -0.1650     2.1423 H       
  18 H18           -0.2237    -0.1421    -2.1359 H       
  19 H19           -0.7093    -1.6070    -1.2491 H       
  20 H20           -1.7565    -0.1678    -1.2314 H       
  21 H21            2.7885    -4.4000    -1.0759 H       
  22 H22            3.6912    -4.3496     0.4573 H       
  23 H23            1.9152    -4.4669     0.4736 H       
@<TRIPOS>BOND
   1    1    2 1
   2    1    4 2
   3    1    5 1
   4    2    3 1
   5    2    6 1
   6    2    7 1
   7    3    8 1
   8    3   12 1
   9    3   13 1
  10    5   14 1
  11    6   15 1
  12    6   16 1
  13    6   17 1
  14    7   18 1
  15    7   19 1
  16    7   20 1
  17    8    9 1
  18    9   10 2
  19    9   11 1
  20   11   21 1
  21   11   22 1
  22   11   23 1

#	End of record

