#	Name: ASD05420021
#	Creating user name:	WinNT
#	Creation time:	15. 06. 2019 20:59

#	Modifying user name:	WinNT
#	Modification time:	15. 06. 2019 20:59

#	Program:	/corina/corina34_cracker 3.40 0067  02.08.2006

@<TRIPOS>MOLECULE
ASD05420021
  90   92    0    0    0
SMALL
NO_CHARGES


@<TRIPOS>ATOM
   1 C1             0.0014     1.5144     0.2331 C.ar    
   2 C2             0.9237     1.6600    -0.8027 C.ar    
   3 C3             2.1316     0.9824    -0.7518 C.ar    
   4 C4             2.4201     0.1610     0.3294 C.ar    
   5 C5             1.4998     0.0181     1.3590 C.ar    
   6 C6             0.2947     0.6928     1.3106 C.ar    
   7 N7             3.6409    -0.5248     0.3815 N.am    
   8 C8             4.9014     0.2142     0.2748 C.3     
   9 C9             5.3613     0.6241     1.6501 C.ar    
  10 C10            6.1827    -0.2159     2.3811 C.ar    
  11 C11            6.6068     0.1543     3.6407 C.ar    
  12 C12            6.2066     1.3773     4.1765 C.ar    
  13 C13            5.3794     2.2198     3.4356 C.ar    
  14 C14            4.9653     1.8416     2.1749 C.ar    
  15 B15            6.6853     1.8041     5.6095 Du      
  16 O16            6.3733     3.0162     6.3109 O.3     
  17 N17            0.6296     2.4894    -1.8930 N.am    
  18 O18            7.5256     1.0648     6.5071 O.3     
  19 C19            8.3873     2.0577     7.1022 C.3     
  20 C20            7.6037     3.3847     6.9688 C.3     
  21 C21            8.6361     1.7331     8.5765 C.3     
  22 C22            9.7125     2.1382     6.3418 C.3     
  23 C23            8.3878     4.3833     6.1149 C.3     
  24 C24            7.3148     3.9745     8.3507 C.3     
  25 N25           -1.2200     2.2034     0.1876 N.am    
  26 C26           -1.8705     2.4981     1.3306 C.2     
  27 O27           -1.4399     2.0995     2.3948 O.2     
  28 O28           -2.9975     3.2341     1.2934 O.3     
  29 C29           -4.8998     4.3544     2.3214 C.3     
  30 C30           -3.6451     3.5127     2.5628 C.3     
  31 O31            4.8262    -2.5121     0.6818 O.3     
  32 C32            4.7661    -3.9546     0.8362 C.3     
  33 C33            4.1118    -4.5731    -0.4009 C.3     
  34 C34            6.1829    -4.5099     0.9952 C.3     
  35 C35            3.9404    -4.3008     2.0768 C.3     
  36 C36            3.6555    -1.8643     0.5297 C.2     
  37 O37            2.6123    -2.4874     0.5260 O.2     
  38 O38            1.0310     3.1375    -4.0983 O.3     
  39 C39            1.7024     2.8424    -5.3515 C.3     
  40 C40            1.2333     1.4828    -5.8736 C.3     
  41 C41            1.3664     3.9263    -6.3777 C.3     
  42 C42            3.2149     2.8070    -5.1237 C.3     
  43 C43            1.2240     2.2740    -3.0833 C.2     
  44 O44            1.9340     1.3004    -3.2405 O.2     
  45 H45            2.8476     1.0931    -1.5528 H       
  46 H46            1.7260    -0.6217     2.1992 H       
  47 H47           -0.4194     0.5798     2.1129 H       
  48 H48            5.6572    -0.4213    -0.1867 H       
  49 H49            4.7507     1.1030    -0.3379 H       
  50 H50            6.4921    -1.1633     1.9649 H       
  51 H51            7.2473    -0.5024     4.2107 H       
  52 H52            5.0661     3.1683     3.8461 H       
  53 H53            4.3274     2.4952     1.5985 H       
  54 H54           -0.0018     3.2187    -1.7912 H       
  55 H55            9.1348     0.7672     8.6567 H       
  56 H56            9.2667     2.5052     9.0172 H       
  57 H57            7.6841     1.6954     9.1060 H       
  58 H58            9.5182     2.3858     5.2983 H       
  59 H59           10.3408     2.9095     6.7873 H       
  60 H60           10.2227     1.1766     6.3982 H       
  61 H61            8.5484     3.9644     5.1215 H       
  62 H62            7.8228     5.3116     6.0308 H       
  63 H63            9.3507     4.5852     6.5842 H       
  64 H64            8.2551     4.1678     8.8670 H       
  65 H65            6.7629     4.9078     8.2392 H       
  66 H66            6.7206     3.2680     8.9302 H       
  67 H67           -1.5962     2.4677    -0.6665 H       
  68 H68           -4.6211     5.2928     1.8420 H       
  69 H69           -5.5862     3.8065     1.6758 H       
  70 H70           -5.3859     4.5635     3.2743 H       
  71 H71           -3.9238     2.5743     3.0422 H       
  72 H72           -2.9587     4.0606     3.2083 H       
  73 H73            4.7000    -4.3264    -1.2847 H       
  74 H74            4.0667    -5.6560    -0.2850 H       
  75 H75            3.1024    -4.1775    -0.5141 H       
  76 H76            6.6491    -4.0693     1.8764 H       
  77 H77            6.1378    -5.5928     1.1110 H       
  78 H78            6.7711    -4.2633     0.1113 H       
  79 H79            2.9311    -3.9052     1.9635 H       
  80 H80            3.8953    -5.3837     2.1927 H       
  81 H81            4.4066    -3.8602     2.9581 H       
  82 H82            0.1558     1.5080    -6.0358 H       
  83 H83            1.7373     1.2613    -6.8143 H       
  84 H84            1.4727     0.7106    -5.1425 H       
  85 H85            1.7006     4.8949    -6.0058 H       
  86 H86            1.8704     3.7048    -7.3184 H       
  87 H87            0.2888     3.9515    -6.5399 H       
  88 H88            3.4543     2.0348    -4.3927 H       
  89 H89            3.7189     2.5855    -6.0645 H       
  90 H90            3.5491     3.7756    -4.7518 H       
@<TRIPOS>BOND
   1    1    2 ar
   2    1    6 ar
   3    1   25 1
   4    2    3 ar
   5    2   17 1
   6    3    4 ar
   7    3   45 1
   8    4    5 ar
   9    4    7 1
  10    5    6 ar
  11    5   46 1
  12    6   47 1
  13    7    8 1
  14    7   36 am
  15    8    9 1
  16    8   48 1
  17    8   49 1
  18    9   10 ar
  19    9   14 ar
  20   10   11 ar
  21   10   50 1
  22   11   12 ar
  23   11   51 1
  24   12   13 ar
  25   12   15 1
  26   13   14 ar
  27   13   52 1
  28   14   53 1
  29   15   16 1
  30   15   18 1
  31   16   20 1
  32   17   43 am
  33   17   54 1
  34   18   19 1
  35   19   20 1
  36   19   21 1
  37   19   22 1
  38   20   23 1
  39   20   24 1
  40   21   55 1
  41   21   56 1
  42   21   57 1
  43   22   58 1
  44   22   59 1
  45   22   60 1
  46   23   61 1
  47   23   62 1
  48   23   63 1
  49   24   64 1
  50   24   65 1
  51   24   66 1
  52   25   26 am
  53   25   67 1
  54   26   27 2
  55   26   28 1
  56   28   30 1
  57   29   30 1
  58   29   68 1
  59   29   69 1
  60   29   70 1
  61   30   71 1
  62   30   72 1
  63   31   32 1
  64   31   36 1
  65   32   33 1
  66   32   34 1
  67   32   35 1
  68   33   73 1
  69   33   74 1
  70   33   75 1
  71   34   76 1
  72   34   77 1
  73   34   78 1
  74   35   79 1
  75   35   80 1
  76   35   81 1
  77   36   37 2
  78   38   39 1
  79   38   43 1
  80   39   40 1
  81   39   41 1
  82   39   42 1
  83   40   82 1
  84   40   83 1
  85   40   84 1
  86   41   85 1
  87   41   86 1
  88   41   87 1
  89   42   88 1
  90   42   89 1
  91   42   90 1
  92   43   44 2

#	End of record

