#	Name: ASD03200088
#	Creating user name:	WinNT
#	Creation time:	15. 06. 2019 20:34

#	Modifying user name:	WinNT
#	Modification time:	15. 06. 2019 20:34

#	Program:	/corina/corina34_cracker 3.40 0067  02.08.2006

@<TRIPOS>MOLECULE
ASD03200088
  37   38    0    0    0
SMALL
NO_CHARGES


@<TRIPOS>ATOM
   1 C1            -0.0127     1.0858     0.0080 C.3     
   2 C2            -1.5792     3.6342    -2.4151 C.3     
   3 C3            -0.7525     1.5926    -1.2322 C.3     
   4 C4            -0.7882     3.1232    -1.2092 C.3     
   5 C5            -1.4651     3.5908     0.0822 C.3     
   6 C6            -0.7047     3.0261     1.2843 C.3     
   7 C7            -2.2958    -0.1776     2.8067 C.3     
   8 C8            -0.1285     1.0070     2.3653 C.ar    
   9 C9            -0.8706     0.1513     3.1692 C.ar    
  10 C10           -0.3008    -0.3975     4.3014 C.ar    
  11 C11            1.1850     1.3079     2.7034 C.ar    
  12 C12            1.7484     0.7558     3.8368 C.ar    
  13 C13            1.0066    -0.0959     4.6350 C.ar    
  14 N14           -2.3095    -1.2086     1.7603 N.4     
  15 N15           -0.6996     1.5592     1.2165 N.3     
  16 O16           -1.5139     5.0611    -2.4575 O.3     
  17 H17            0.0021    -0.0041     0.0020 H       
  18 H18            1.0099     1.4629     0.0003 H       
  19 H19           -1.1524     3.2236    -3.3301 H       
  20 H20           -2.6194     3.3206    -2.3267 H       
  21 H21           -0.2336     1.2541    -2.1290 H       
  22 H22           -1.7709     1.2041    -1.2324 H       
  23 H23            0.2293     3.5120    -1.2497 H       
  24 H24           -1.4554     4.6799     0.1244 H       
  25 H25           -2.4949     3.2343     0.1029 H       
  26 H26            0.3213     3.3940     1.2704 H       
  27 H27           -1.1925     3.3454     2.2052 H       
  28 H28           -2.8188    -0.5479     3.6884 H       
  29 H29           -2.7936     0.7197     2.4391 H       
  30 H30           -0.8774    -1.0627     4.9271 H       
  31 H31            1.7649     1.9727     2.0803 H       
  32 H32            2.7695     0.9891     4.1000 H       
  33 H33            1.4496    -0.5261     5.5211 H       
  34 H34           -1.8254    -0.8658     0.9441 H       
  35 H35           -1.8488    -2.0393     2.1005 H       
  36 H36           -3.2638    -1.4288     1.5176 H       
  37 H37           -1.9946     5.4550    -3.1984 H       
@<TRIPOS>BOND
   1    1   17 1
   2    1   18 1
   3    1    3 1
   4    1   15 1
   5    2    4 1
   6    2   19 1
   7    2   20 1
   8    2   16 1
   9    3   21 1
  10    3   22 1
  11    3    4 1
  12    4   23 1
  13    4    5 1
  14    5    6 1
  15    5   24 1
  16    5   25 1
  17    6   15 1
  18    6   26 1
  19    6   27 1
  20    7    9 1
  21    7   28 1
  22    7   29 1
  23    7   14 1
  24    8   11 ar
  25    8    9 ar
  26    8   15 1
  27    9   10 ar
  28   10   13 ar
  29   10   30 1
  30   11   12 ar
  31   11   31 1
  32   12   32 1
  33   12   13 ar
  34   13   33 1
  35   14   34 1
  36   14   35 1
  37   14   36 1
  38   16   37 1

#	End of record

