#	Name: ASD07930362
#	Creating user name:	WinNT
#	Creation time:	15. 06. 2019 21:12

#	Modifying user name:	WinNT
#	Modification time:	15. 06. 2019 21:12

#	Program:	/corina/corina34_cracker 3.40 0067  02.08.2006

@<TRIPOS>MOLECULE
ASD07930362
  49   50    0    0    0
SMALL
NO_CHARGES


@<TRIPOS>ATOM
   1 N1            -0.0178     1.4625     0.0101 N.pl3   
   2 C2             0.0021    -0.0041     0.0020 C.3     
   3 C3             0.7718    -0.5048     1.2325 C.3     
   4 S4             2.4285     0.2504     1.2124 S.o2    
   5 N5             2.0919     1.8640     0.9683 N.am    
   6 C6             1.1578     2.1624     0.0026 C.2     
   7 C7            -1.4106    -0.5271     0.0446 C.ar    
   8 C8            -1.6800    -1.7403     0.6515 C.ar    
   9 C9             2.7573     2.9137     1.7441 C.3     
  10 C10            0.6936    -0.4990    -1.2699 C.3     
  11 C11           -2.4355     0.2082    -0.5173 C.ar    
  12 C12           -3.7376    -0.2745    -0.4771 C.ar    
  13 C13           -4.0039    -1.4957     0.1285 C.ar    
  14 C14           -2.9747    -2.2238     0.6928 C.ar    
  15 O15            3.0216     0.2000     2.5027 O.2     
  16 O16            3.1487    -0.1441     0.0527 O.2     
  17 N17           -4.7767     0.4669    -1.0441 N.pl3   
  18 N18            1.3895     3.0980    -0.9052 N.2     
  19 O19            0.7026     4.3249    -2.7604 O.3     
  20 C20           -0.3264     4.5641    -3.7227 C.3     
  21 C21           -1.6061     4.9965    -3.0041 C.3     
  22 C22            0.1189     5.6704    -4.6812 C.3     
  23 C23           -0.5938     3.2816    -4.5130 C.3     
  24 C24            0.4665     3.3713    -1.8351 C.2     
  25 O25           -0.5860     2.7598    -1.8463 O.2     
  26 H26           -0.8643     1.9361     0.0167 H       
  27 H27            0.2449    -0.2114     2.1405 H       
  28 H28            0.8620    -1.5903     1.1933 H       
  29 H29           -0.8772    -2.3115     1.0939 H       
  30 H30            3.6679     3.2228     1.2309 H       
  31 H31            2.0893     3.7690     1.8458 H       
  32 H32            3.0096     2.5302     2.7326 H       
  33 H33            1.7160    -0.1220    -1.2978 H       
  34 H34            0.7080    -1.5889    -1.2751 H       
  35 H35            0.1496    -0.1386    -2.1430 H       
  36 H36           -2.2251     1.1577    -0.9871 H       
  37 H37           -5.0150    -1.8738     0.1613 H       
  38 H38           -3.1810    -3.1737     1.1636 H       
  39 H39           -4.5896     1.3199    -1.4665 H       
  40 H40           -5.6855     0.1289    -1.0155 H       
  41 H41           -1.4156     5.9101    -2.4410 H       
  42 H42           -2.3910     5.1790    -3.7381 H       
  43 H43           -1.9233     4.2083    -2.3212 H       
  44 H44            1.0305     5.3624    -5.1931 H       
  45 H45           -0.6660     5.8529    -5.4152 H       
  46 H46            0.3093     6.5841    -4.1181 H       
  47 H47           -0.9110     2.4935    -3.8301 H       
  48 H48           -1.3787     3.4641    -5.2470 H       
  49 H49            0.3179     2.9736    -5.0249 H       
@<TRIPOS>BOND
   1    1    2 1
   2    1    6 1
   3    1   26 1
   4    2    3 1
   5    2    7 1
   6    2   10 1
   7    3    4 1
   8    3   27 1
   9    3   28 1
  10    4    5 am
  11    4   15 2
  12    4   16 2
  13    5    6 1
  14    5    9 1
  15    6   18 2
  16    7   11 ar
  17    7    8 ar
  18    8   14 ar
  19    8   29 1
  20    9   30 1
  21    9   31 1
  22    9   32 1
  23   10   33 1
  24   10   34 1
  25   10   35 1
  26   11   12 ar
  27   11   36 1
  28   12   13 ar
  29   12   17 1
  30   13   14 ar
  31   13   37 1
  32   14   38 1
  33   17   39 1
  34   17   40 1
  35   18   24 1
  36   19   20 1
  37   19   24 1
  38   20   21 1
  39   20   22 1
  40   20   23 1
  41   21   41 1
  42   21   42 1
  43   21   43 1
  44   22   44 1
  45   22   45 1
  46   22   46 1
  47   23   47 1
  48   23   48 1
  49   23   49 1
  50   24   25 2

#	End of record

