#	Name: ASD04910159
#	Creating user name:	WinNT
#	Creation time:	15. 06. 2019 20:55

#	Modifying user name:	WinNT
#	Modification time:	15. 06. 2019 20:55

#	Program:	/corina/corina34_cracker 3.40 0067  02.08.2006

@<TRIPOS>MOLECULE
ASD04910159
  29   30    0    0    0
SMALL
NO_CHARGES


@<TRIPOS>ATOM
   1 C1            -0.0167     1.3839     0.0097 C.ar    
   2 C2             0.0021    -0.0041     0.0020 C.ar    
   3 C3             1.2282    -0.6660    -0.0133 C.ar    
   4 C4             2.3858     0.0920    -0.0203 C.ar    
   5 C5             2.2884     1.4774    -0.0119 C.ar    
   6 N6             1.1073     2.0731     0.0026 N.ar    
   7 N7            -1.1941    -0.7288     0.0101 N.pl3   
   8 C8             4.7284     1.7946    -0.1293 C.2     
   9 N9             5.5411     2.8152    -0.0960 N.2     
  10 C10            4.8306     3.9454     0.0346 C.2     
  11 C11            3.5255     3.6184     0.0847 C.2     
  12 N12            3.4540     2.2528    -0.0190 N.pl3   
  13 C13            5.3957     5.3403     0.1124 C.3     
  14 C14            5.3872     5.9723    -1.2810 C.3     
  15 C15            4.5416     6.1844     1.0605 C.3     
  16 H16           -0.9626     1.9051     0.0170 H       
  17 H17            1.2738    -1.7450    -0.0192 H       
  18 H18            3.3533    -0.3879    -0.0318 H       
  19 H19           -2.0441    -0.2616     0.0210 H       
  20 H20           -1.1737    -1.6985     0.0046 H       
  21 H21            5.0196     0.7597    -0.2321 H       
  22 H22            2.6945     4.3005     0.1873 H       
  23 H23            6.4189     5.2975     0.4857 H       
  24 H24            5.7959     6.9812    -1.2247 H       
  25 H25            5.9957     5.3710    -1.9564 H       
  26 H26            4.3641     6.0151    -1.6543 H       
  27 H27            4.5477     5.7341     2.0531 H       
  28 H28            4.9503     7.1933     1.1167 H       
  29 H29            3.5185     6.2271     0.6871 H       
@<TRIPOS>BOND
   1    1    2 ar
   2    1    6 ar
   3    1   16 1
   4    2    3 ar
   5    2    7 1
   6    3    4 ar
   7    3   17 1
   8    4    5 ar
   9    4   18 1
  10    5    6 ar
  11    5   12 1
  12    7   19 1
  13    7   20 1
  14    8    9 2
  15    8   12 1
  16    8   21 1
  17    9   10 1
  18   10   11 2
  19   10   13 1
  20   11   12 1
  21   11   22 1
  22   13   14 1
  23   13   15 1
  24   13   23 1
  25   14   24 1
  26   14   25 1
  27   14   26 1
  28   15   27 1
  29   15   28 1
  30   15   29 1

#	End of record

