#	Name: ASD01910512
#	Creating user name:	WinNT
#	Creation time:	15. 06. 2019 19:56

#	Modifying user name:	WinNT
#	Modification time:	15. 06. 2019 19:56

#	Program:	/corina/corina34_cracker 3.40 0067  02.08.2006

@<TRIPOS>MOLECULE
ASD01910512
  48   52    0    0    0
SMALL
NO_CHARGES


@<TRIPOS>ATOM
   1 O1             0.0333     1.1153     0.1126 O.3     
   2 C2             0.0372    -0.2170    -0.0590 C.2     
   3 N3             1.3064    -0.5831    -0.1467 N.2     
   4 C4             2.0158     0.5484    -0.0237 C.2     
   5 N5             1.1737     1.5279     0.1293 N.2     
   6 C6            -1.1390    -1.0973    -0.1341 C.2     
   7 C7            -2.4324    -0.6926    -0.0403 C.2     
   8 C8            -3.2537    -1.8406    -0.1612 C.ar    
   9 C9            -2.3946    -2.9436    -0.3305 C.ar    
  10 N10           -1.1041    -2.4650    -0.3169 N.pl3   
  11 C11            3.9350     1.5772    -1.2141 C.3     
  12 C12            3.5180     0.6643    -0.0568 C.3     
  13 C13            4.0135     1.2610     1.2625 C.3     
  14 C14            5.5412     1.3486     1.2428 C.3     
  15 C15            5.9812     2.2693     0.1002 C.3     
  16 N16            5.3885     1.7837    -1.1534 N.am    
  17 C17            6.1632     1.5320    -2.2271 C.2     
  18 C18            7.6019     1.8656    -2.1943 C.ar    
  19 O19            5.6781     1.0304    -3.2226 O.2     
  20 C20            8.5390     0.9802    -2.7311 C.ar    
  21 C21            9.8802     1.2967    -2.6983 C.ar    
  22 C22           10.2995     2.4916    -2.1337 C.ar    
  23 C23            9.3733     3.3741    -1.5989 C.ar    
  24 C24            8.0293     3.0702    -1.6316 C.ar    
  25 F25           11.6152     2.7970    -2.1041 F       
  26 C26           -4.6402    -2.0382    -0.1417 C.ar    
  27 C27           -5.1487    -3.2963    -0.2868 C.ar    
  28 C28           -4.3034    -4.3858    -0.4536 C.ar    
  29 C29           -2.9368    -4.2168    -0.4766 C.ar    
  30 H30           -2.7735     0.3223     0.1011 H       
  31 H31           -0.3018    -3.0015    -0.4131 H       
  32 H32            3.6719     1.1084    -2.1624 H       
  33 H33            3.4256     2.5366    -1.1246 H       
  34 H34            3.9565    -0.3238    -0.1966 H       
  35 H35            3.5941     2.2591     1.3897 H       
  36 H36            3.6968     0.6261     2.0899 H       
  37 H37            5.8948     1.7520     2.1917 H       
  38 H38            5.9607     0.3541     1.0908 H       
  39 H39            5.6387     3.2852     0.2969 H       
  40 H40            7.0682     2.2573     0.0191 H       
  41 H41            8.2135     0.0490    -3.1708 H       
  42 H42           10.6057     0.6125    -3.1128 H       
  43 H43            9.7053     4.3034    -1.1600 H       
  44 H44            7.3087     3.7584    -1.2151 H       
  45 H45           -5.3051    -1.1971    -0.0118 H       
  46 H46           -6.2182    -3.4462    -0.2715 H       
  47 H47           -4.7219    -5.3751    -0.5664 H       
  48 H48           -2.2877    -5.0701    -0.6071 H       
@<TRIPOS>BOND
   1    1    2 1
   2    1    5 1
   3    2    3 2
   4    2    6 1
   5    3    4 1
   6    4    5 2
   7    4   12 1
   8    6    7 2
   9    6   10 1
  10    7    8 1
  11    7   30 1
  12    8    9 ar
  13    8   26 ar
  14    9   10 1
  15    9   29 ar
  16   10   31 1
  17   11   12 1
  18   11   16 1
  19   11   32 1
  20   11   33 1
  21   12   13 1
  22   12   34 1
  23   13   14 1
  24   13   35 1
  25   13   36 1
  26   14   15 1
  27   14   37 1
  28   14   38 1
  29   15   16 1
  30   15   39 1
  31   15   40 1
  32   16   17 am
  33   17   18 1
  34   17   19 2
  35   18   20 ar
  36   18   24 ar
  37   20   21 ar
  38   20   41 1
  39   21   22 ar
  40   21   42 1
  41   22   23 ar
  42   22   25 1
  43   23   24 ar
  44   23   43 1
  45   24   44 1
  46   26   27 ar
  47   26   45 1
  48   27   28 ar
  49   27   46 1
  50   28   29 ar
  51   28   47 1
  52   29   48 1

#	End of record

