#	Name: ASD01148657
#	Creating user name:	WinNT
#	Creation time:	15. 06. 2019 19:02

#	Modifying user name:	WinNT
#	Modification time:	15. 06. 2019 19:02

#	Program:	/corina/corina34_cracker 3.40 0067  02.08.2006

@<TRIPOS>MOLECULE
ASD01148657
  50   53    0    0    0
SMALL
NO_CHARGES


@<TRIPOS>ATOM
   1 N1             0.8370     1.6547    -0.8787 N.2     
   2 N2             1.5650     0.4736    -1.0695 N.pl3   
   3 C3             0.8455    -0.5527    -0.5159 C.2     
   4 C4            -0.3077    -0.0020     0.0061 C.2     
   5 C5            -0.2716     1.3693    -0.2413 C.2     
   6 C6             1.2291    -1.9718    -0.4838 C.2     
   7 O7             2.2175    -2.3484    -1.0846 O.2     
   8 N8             0.4856    -2.8553     0.2112 N.am    
   9 C9             0.7793    -4.2112     0.1484 C.ar    
  10 C10            2.0724    -4.6565     0.4079 C.ar    
  11 C11            2.3679    -5.9999     0.3467 C.ar    
  12 C12            1.3700    -6.9275     0.0235 C.ar    
  13 C13            0.0724    -6.4931    -0.2377 C.ar    
  14 C14           -0.2294    -5.1346    -0.1714 C.ar    
  15 C15           -1.6026    -4.6671    -0.4413 C.2     
  16 N16           -2.5911    -5.5607    -0.6439 N.am    
  17 O17           -1.8425    -3.4758    -0.4809 O.2     
  18 C18           -3.9545    -5.0965    -0.9118 C.3     
  19 C19           -4.1100    -4.8062    -2.4059 C.3     
  20 C20           -4.9527    -6.1790    -0.4960 C.3     
  21 C21           -6.4402    -5.8832    -0.6977 C.3     
  22 C22           -5.7298    -6.8877    -1.6072 C.3     
  23 C23            1.6837    -8.3233    -0.0391 C.1     
  24 N24            1.9325    -9.4306    -0.0887 N.1     
  25 Cl25           3.3166    -3.5143     0.8095 Cl      
  26 C26            2.8017     0.3619    -1.7096 C.ar    
  27 C27            3.3468     1.4678    -2.3534 C.ar    
  28 C28            4.5740     1.3428    -2.9837 C.ar    
  29 C29            5.2141     0.1119    -2.9474 C.ar    
  30 C30            4.6133    -0.9436    -2.2890 C.ar    
  31 N31            3.4462    -0.7935    -1.6934 N.ar    
  32 Cl32           2.5007     2.9836    -2.3673 Cl      
  33 Br33          -1.6039     2.6137     0.2611 Br      
  34 H34           -1.0962    -0.5373     0.5141 H       
  35 H35           -0.2546    -2.5441     0.7554 H       
  36 H36            3.3731    -6.3394     0.5483 H       
  37 H37           -0.6981    -7.2076    -0.4872 H       
  38 H38           -2.3997    -6.5111    -0.6123 H       
  39 H39           -4.1470    -4.1869    -0.3429 H       
  40 H40           -5.1245    -4.4608    -2.6053 H       
  41 H41           -3.3989    -4.0350    -2.7021 H       
  42 H42           -3.9175    -5.7158    -2.9748 H       
  43 H43           -4.6705    -6.7686     0.3762 H       
  44 H44           -7.1367    -6.2787     0.0416 H       
  45 H45           -6.7077    -4.9175    -1.1266 H       
  46 H46           -5.5299    -6.5829    -2.6344 H       
  47 H47           -5.9589    -7.9440    -1.4662 H       
  48 H48            5.0221     2.1837    -3.4920 H       
  49 H49            6.1717    -0.0195    -3.4290 H       
  50 H50            5.1078    -1.9032    -2.2582 H       
@<TRIPOS>BOND
   1    1    2 1
   2    1    5 2
   3    2    3 1
   4    2   26 1
   5    3    4 2
   6    3    6 1
   7    4    5 1
   8    4   34 1
   9    5   33 1
  10    6    7 2
  11    6    8 am
  12    8    9 1
  13    8   35 1
  14    9   10 ar
  15    9   14 ar
  16   10   11 ar
  17   10   25 1
  18   11   12 ar
  19   11   36 1
  20   12   13 ar
  21   12   23 1
  22   13   14 ar
  23   13   37 1
  24   14   15 1
  25   15   16 am
  26   15   17 2
  27   16   18 1
  28   16   38 1
  29   18   19 1
  30   18   20 1
  31   18   39 1
  32   19   40 1
  33   19   41 1
  34   19   42 1
  35   20   21 1
  36   20   22 1
  37   20   43 1
  38   21   22 1
  39   21   44 1
  40   21   45 1
  41   22   46 1
  42   22   47 1
  43   23   24 3
  44   26   27 ar
  45   26   31 ar
  46   27   28 ar
  47   27   32 1
  48   28   29 ar
  49   28   48 1
  50   29   30 ar
  51   29   49 1
  52   30   31 ar
  53   30   50 1

#	End of record

