#	Name: ASD01901613
#	Creating user name:	WinNT
#	Creation time:	15. 06. 2019 19:54

#	Modifying user name:	WinNT
#	Modification time:	15. 06. 2019 19:54

#	Program:	/corina/corina34_cracker 3.40 0067  02.08.2006

@<TRIPOS>MOLECULE
ASD01901613
  45   48    0    0    0
SMALL
NO_CHARGES


@<TRIPOS>ATOM
   1 C1            -0.9899     3.4256     0.1483 C.3     
   2 C2            -0.6291     1.9404     0.2194 C.3     
   3 O3            -1.8251     1.1585     0.2082 O.3     
   4 C4            -1.5987    -0.2510     0.2716 C.3     
   5 C5            -2.9413    -0.9845     0.2534 C.3     
   6 O6            -3.5888    -0.7617    -1.0008 O.3     
   7 C7            -4.7978    -1.3463    -1.1813 C.ar    
   8 N8            -5.3284    -2.0772    -0.2217 N.ar    
   9 C9            -6.5082    -2.6727    -0.3431 C.ar    
  10 C10           -7.2540    -2.5677    -1.4756 C.ar    
  11 C11           -6.7551    -1.8025    -2.5489 C.ar    
  12 C12           -7.4653    -1.6482    -3.7449 C.ar    
  13 C13           -6.9230    -0.8852    -4.7598 C.ar    
  14 N14           -7.6244    -0.7267    -5.9546 N.pl3   
  15 C15           -6.9296    -0.5362    -7.1532 C.2     
  16 N16           -5.6335    -0.5893    -7.3092 N.2     
  17 N17           -5.3017    -0.3482    -8.6464 N.pl3   
  18 H18           -4.4021    -0.3351    -9.0091 H       
  19 C19           -6.4499    -0.1335    -9.3620 C.ar    
  20 C20           -6.7169     0.1468   -10.7016 C.ar    
  21 C21           -8.0337     0.3072   -11.0857 C.ar    
  22 C22           -9.0442     0.1870   -10.1407 C.ar    
  23 N23           -8.7757    -0.0775    -8.8823 N.ar    
  24 C24           -7.5250    -0.2477    -8.4601 C.ar    
  25 C25           -5.6762    -0.2689    -4.6010 C.ar    
  26 C26           -4.9693    -0.4059    -3.4465 C.ar    
  27 C27           -5.4946    -1.1698    -2.3945 C.ar    
  28 H28           -0.0776     4.0220     0.1568 H       
  29 H29           -1.5435     3.6214    -0.7701 H       
  30 H30           -1.6058     3.6914     1.0074 H       
  31 H31           -0.0132     1.6746    -0.6397 H       
  32 H32           -0.0755     1.7446     1.1377 H       
  33 H33           -1.0029    -0.5623    -0.5864 H       
  34 H34           -1.0653    -0.4923     1.1911 H       
  35 H35           -2.7735    -2.0527     0.3911 H       
  36 H36           -3.5715    -0.6089     1.0595 H       
  37 H37           -6.8871    -3.2582     0.4816 H       
  38 H38           -8.2112    -3.0622    -1.5512 H       
  39 H39           -8.4276    -2.1215    -3.8729 H       
  40 H40           -8.5941    -0.7485    -5.9543 H       
  41 H41           -5.9152     0.2363   -11.4197 H       
  42 H42           -8.2762     0.5254   -12.1152 H       
  43 H43          -10.0722     0.3138   -10.4466 H       
  44 H44           -5.2692     0.3239    -5.4069 H       
  45 H45           -4.0086     0.0759    -3.3391 H       
@<TRIPOS>BOND
   1    1    2 1
   2    1   28 1
   3    1   29 1
   4    1   30 1
   5    2    3 1
   6    2   31 1
   7    2   32 1
   8    3    4 1
   9    4    5 1
  10    4   33 1
  11    4   34 1
  12    5    6 1
  13    5   35 1
  14    5   36 1
  15    6    7 1
  16    7   27 ar
  17    7    8 ar
  18    8    9 ar
  19    9   10 ar
  20    9   37 1
  21   10   11 ar
  22   10   38 1
  23   11   27 ar
  24   11   12 ar
  25   12   13 ar
  26   12   39 1
  27   13   14 1
  28   13   25 ar
  29   14   15 1
  30   14   40 1
  31   15   24 1
  32   15   16 2
  33   16   17 1
  34   17   18 1
  35   17   19 1
  36   19   24 ar
  37   19   20 ar
  38   20   21 ar
  39   20   41 1
  40   21   22 ar
  41   21   42 1
  42   22   23 ar
  43   22   43 1
  44   23   24 ar
  45   25   26 ar
  46   25   44 1
  47   26   27 ar
  48   26   45 1

#	End of record

