#	Name: ASD00431234
#	Creating user name:	WinNT
#	Creation time:	15. 06. 2019 18:35

#	Modifying user name:	WinNT
#	Modification time:	15. 06. 2019 18:35

#	Program:	/corina/corina34_cracker 3.40 0067  02.08.2006

@<TRIPOS>MOLECULE
ASD00431234
  69   71    0    0    0
SMALL
NO_CHARGES


@<TRIPOS>ATOM
   1 S1            -0.0213     1.7038    -0.0294 S.3     
   2 C2            -0.0045    -0.0051     0.0208 C.2     
   3 N3             1.2139    -0.4363     0.1068 N.2     
   4 C4             2.1697     0.4744     0.1384 C.2     
   5 C5             1.7370     1.7346     0.0760 C.2     
   6 Sn6            2.9700     3.4958     0.0999 Du      
   7 C7             1.7249     5.2441    -0.0248 C.3     
   8 C8             0.7682     5.2751     1.1688 C.3     
   9 C9            -0.1179     6.5192     1.0801 C.3     
  10 C10           -1.0746     6.5502     2.2737 C.3     
  11 C11            4.1038     3.5522     1.9258 C.3     
  12 C12            4.9812     4.8055     1.9428 C.3     
  13 C13            5.7880     4.8456     3.2421 C.3     
  14 C14            6.6655     6.0989     3.2591 C.3     
  15 C15            4.3143     3.4523    -1.5774 C.3     
  16 C16            5.2004     2.2081    -1.4887 C.3     
  17 C17            6.1571     2.1772    -2.6823 C.3     
  18 C18            7.0431     0.9330    -2.5936 C.3     
  19 O19           -1.1058    -0.7938    -0.0227 O.3     
  20 C20           -0.9251    -2.1372    -0.1286 C.ar    
  21 C21            0.3440    -2.6508    -0.3532 C.ar    
  22 C22            0.5277    -4.0154    -0.4603 C.ar    
  23 C23           -0.5569    -4.8726    -0.3431 C.ar    
  24 C24           -1.8259    -4.3590    -0.1184 C.ar    
  25 C25           -2.0088    -2.9947    -0.0062 C.ar    
  26 O26           -0.3761    -6.2159    -0.4489 O.3     
  27 C27            0.8641    -6.6694    -0.7691 C.ar    
  28 C28            1.8722    -6.6683     0.1845 C.ar    
  29 C29            3.1320    -7.1303    -0.1435 C.ar    
  30 C30            3.3889    -7.5937    -1.4207 C.ar    
  31 C31            2.3863    -7.5955    -2.3729 C.ar    
  32 C32            1.1233    -7.1399    -2.0485 C.ar    
  33 H33            3.2167     0.2195     0.2096 H       
  34 H34            2.3499     6.1370    -0.0127 H       
  35 H35            1.1500     5.2155    -0.9505 H       
  36 H36            0.1431     4.3822     1.1567 H       
  37 H37            1.3430     5.3037     2.0945 H       
  38 H38            0.5072     7.4121     1.0922 H       
  39 H39           -0.6927     6.4907     0.1544 H       
  40 H40           -0.4997     6.5788     3.1994 H       
  41 H41           -1.7058     7.4366     2.2105 H       
  42 H42           -1.6996     5.6573     2.2616 H       
  43 H43            3.4222     3.5742     2.7761 H       
  44 H44            4.7350     2.6658     1.9890 H       
  45 H45            5.6628     4.7834     1.0924 H       
  46 H46            4.3500     5.6918     1.8795 H       
  47 H47            5.1065     4.8676     4.0925 H       
  48 H48            6.4193     3.9592     3.3053 H       
  49 H49            7.3470     6.0768     2.4087 H       
  50 H50            6.0342     6.9852     3.1959 H       
  51 H51            7.2403     6.1275     4.1848 H       
  52 H52            3.7395     3.4237    -2.5031 H       
  53 H53            4.9394     4.3452    -1.5653 H       
  54 H54            5.7752     2.2367    -0.5630 H       
  55 H55            4.5753     1.3153    -1.5008 H       
  56 H56            5.5823     2.1486    -3.6080 H       
  57 H57            6.7822     3.0700    -2.6702 H       
  58 H58            6.4180     0.0402    -2.6057 H       
  59 H59            7.7247     0.9110    -3.4439 H       
  60 H60            7.6179     0.9616    -1.6679 H       
  61 H61            1.1882    -1.9835    -0.4448 H       
  62 H62            1.5155    -4.4152    -0.6355 H       
  63 H63           -2.6702    -5.0263    -0.0273 H       
  64 H64           -2.9960    -2.5951     0.1732 H       
  65 H65            1.6721    -6.3061     1.1821 H       
  66 H66            3.9170    -7.1293     0.5982 H       
  67 H67            4.3746    -7.9545    -1.6751 H       
  68 H68            2.5898    -7.9573    -3.3699 H       
  69 H69            0.3392    -7.1460    -2.7912 H       
@<TRIPOS>BOND
   1    1    2 1
   2    1    5 1
   3    2    3 2
   4    2   19 1
   5    3    4 1
   6    4    5 2
   7    4   33 1
   8    5    6 1
   9    6    7 1
  10    6   11 1
  11    6   15 1
  12    7    8 1
  13    7   34 1
  14    7   35 1
  15    8    9 1
  16    8   36 1
  17    8   37 1
  18    9   10 1
  19    9   38 1
  20    9   39 1
  21   10   40 1
  22   10   41 1
  23   10   42 1
  24   11   12 1
  25   11   43 1
  26   11   44 1
  27   12   13 1
  28   12   45 1
  29   12   46 1
  30   13   14 1
  31   13   47 1
  32   13   48 1
  33   14   49 1
  34   14   50 1
  35   14   51 1
  36   15   16 1
  37   15   52 1
  38   15   53 1
  39   16   17 1
  40   16   54 1
  41   16   55 1
  42   17   18 1
  43   17   56 1
  44   17   57 1
  45   18   58 1
  46   18   59 1
  47   18   60 1
  48   19   20 1
  49   20   21 ar
  50   20   25 ar
  51   21   22 ar
  52   21   61 1
  53   22   23 ar
  54   22   62 1
  55   23   24 ar
  56   23   26 1
  57   24   25 ar
  58   24   63 1
  59   25   64 1
  60   26   27 1
  61   27   28 ar
  62   27   32 ar
  63   28   29 ar
  64   28   65 1
  65   29   30 ar
  66   29   66 1
  67   30   31 ar
  68   30   67 1
  69   31   32 ar
  70   31   68 1
  71   32   69 1

#	End of record

