#	Name: ASD05313216
#	Creating user name:	WinNT
#	Creation time:	15. 06. 2019 20:58

#	Modifying user name:	WinNT
#	Modification time:	15. 06. 2019 20:58

#	Program:	/corina/corina34_cracker 3.40 0067  02.08.2006

@<TRIPOS>MOLECULE
ASD05313216
  36   38    0    0    0
SMALL
NO_CHARGES


@<TRIPOS>ATOM
   1 C1            -0.0740     0.8194     1.0251 C.2     
   2 C2             0.1126    -0.6188     0.5970 C.3     
   3 N3             0.9270     1.7312     1.0515 N.pl3   
   4 N4             1.4555    -0.7201    -0.0037 N.am    
   5 C5             2.5692    -0.0390     0.6738 C.3     
   6 C6             2.3152     1.4726     0.6634 C.3     
   7 N7            -1.1711     1.3905     1.4250 N.2     
   8 C8            -0.9162     2.6754     1.7217 C.2     
   9 C9             0.3929     2.9054     1.4950 C.2     
  10 C10           -1.9180     3.6834     2.2231 C.3     
  11 C11           -3.0993     3.7542     1.2534 C.3     
  12 C12            1.6565    -1.4168    -1.1398 C.2     
  13 O13            2.7488    -1.4075    -1.6733 O.2     
  14 C14            0.5496    -2.1916    -1.7367 C.ar    
  15 C15            0.3198    -2.1400    -3.1144 C.ar    
  16 C16           -0.7166    -2.8667    -3.6654 C.ar    
  17 C17           -1.5267    -3.6450    -2.8559 C.ar    
  18 C18           -1.3033    -3.6998    -1.4898 C.ar    
  19 C19           -0.2680    -2.9833    -0.9278 C.ar    
  20 Cl20          -2.8283    -4.5557    -3.5560 Cl      
  21 Cl21           1.3346    -1.1640    -4.1299 Cl      
  22 H22            0.0423    -1.2767     1.4632 H       
  23 H23           -0.6450    -0.8890    -0.1387 H       
  24 H24            2.6383    -0.3896     1.7036 H       
  25 H25            3.5008    -0.2554     0.1509 H       
  26 H26            2.4922     1.8645    -0.3382 H       
  27 H27            2.9874     1.9596     1.3698 H       
  28 H28            0.9177     3.8382     1.6392 H       
  29 H29           -2.2742     3.3825     3.2083 H       
  30 H30           -1.4448     4.6629     2.2914 H       
  31 H31           -2.7432     4.0551     0.2682 H       
  32 H32           -3.5726     2.7747     1.1851 H       
  33 H33           -3.8239     4.4833     1.6161 H       
  34 H34           -0.8960    -2.8279    -4.7297 H       
  35 H35           -1.9389    -4.3088    -0.8641 H       
  36 H36           -0.0924    -3.0310     0.1368 H       
@<TRIPOS>BOND
   1    1    2 1
   2    1    3 1
   3    1    7 2
   4    2    4 1
   5    2   22 1
   6    2   23 1
   7    3    6 1
   8    3    9 1
   9    4    5 1
  10    4   12 am
  11    5    6 1
  12    5   24 1
  13    5   25 1
  14    6   26 1
  15    6   27 1
  16    7    8 1
  17    8    9 2
  18    8   10 1
  19    9   28 1
  20   10   11 1
  21   10   29 1
  22   10   30 1
  23   11   31 1
  24   11   32 1
  25   11   33 1
  26   12   13 2
  27   12   14 1
  28   14   15 ar
  29   14   19 ar
  30   15   16 ar
  31   15   21 1
  32   16   17 ar
  33   16   34 1
  34   17   18 ar
  35   17   20 1
  36   18   19 ar
  37   18   35 1
  38   19   36 1

#	End of record

