#	Name: ASD01915159
#	Creating user name:	WinNT
#	Creation time:	15. 06. 2019 20:04

#	Modifying user name:	WinNT
#	Modification time:	15. 06. 2019 20:04

#	Program:	/corina/corina34_cracker 3.40 0067  02.08.2006

@<TRIPOS>MOLECULE
ASD01915159
  30   31    0    0    0
SMALL
NO_CHARGES


@<TRIPOS>ATOM
   1 C1            -0.0159     1.3215     0.0093 C.ar    
   2 N2             0.0021    -0.0041     0.0020 N.ar    
   3 C3            -1.1215    -0.6978     0.0095 C.ar    
   4 C4            -2.3433    -0.0117     0.0253 C.ar    
   5 C5            -2.3169     1.3893     0.0325 C.ar    
   6 N6            -1.1500     2.0076     0.0293 N.ar    
   7 C7            -3.5858    -0.7235     0.0333 C.1     
   8 C8            -4.6045    -1.3070     0.0399 C.1     
   9 C9            -5.8471    -2.0188     0.0480 C.ar    
  10 C10           -7.0568    -1.3194     0.0638 C.ar    
  11 C11           -8.2496    -2.0117     0.0710 C.ar    
  12 C12           -8.2504    -3.3955     0.0631 C.ar    
  13 C13           -7.0565    -4.0949     0.0475 C.ar    
  14 C14           -5.8559    -3.4161     0.0343 C.ar    
  15 N15            1.1842     2.0089     0.0015 N.pl3   
  16 C16            1.1893     3.4739     0.0094 C.3     
  17 C17           -9.5581    -4.1445     0.0721 C.3     
  18 H18           -1.0992    -1.7776     0.0031 H       
  19 H19           -3.2369     1.9548     0.0443 H       
  20 H20           -7.0576    -0.2394     0.0707 H       
  21 H21           -9.1853    -1.4725     0.0832 H       
  22 H22           -7.0648    -5.1748     0.0417 H       
  23 H23           -4.9248    -3.9632     0.0221 H       
  24 H24            2.0226     1.5211    -0.0091 H       
  25 H25            0.6682     3.8438    -0.8737 H       
  26 H26            0.6852     3.8342     0.9061 H       
  27 H27            2.2182     3.8337     0.0015 H       
  28 H28           -9.8837    -4.3192    -0.9534 H       
  29 H29           -9.4258    -5.1003     0.5791 H       
  30 H30          -10.3104    -3.5558     0.5969 H       
@<TRIPOS>BOND
   1    1    2 ar
   2    1   15 1
   3    1    6 ar
   4    2    3 ar
   5    3    4 ar
   6    3   18 1
   7    4    5 ar
   8    4    7 1
   9    5    6 ar
  10    5   19 1
  11    7    8 3
  12    8    9 1
  13    9   10 ar
  14    9   14 ar
  15   10   11 ar
  16   10   20 1
  17   11   12 ar
  18   11   21 1
  19   12   13 ar
  20   12   17 1
  21   13   14 ar
  22   13   22 1
  23   14   23 1
  24   15   16 1
  25   15   24 1
  26   16   25 1
  27   16   26 1
  28   16   27 1
  29   17   28 1
  30   17   29 1
  31   17   30 1

#	End of record

