#	Name: ASD01208051
#	Creating user name:	WinNT
#	Creation time:	15. 06. 2019 19:09

#	Modifying user name:	WinNT
#	Modification time:	15. 06. 2019 19:09

#	Program:	/corina/corina34_cracker 3.40 0067  02.08.2006

@<TRIPOS>MOLECULE
ASD01208051
  56   59    0    0    0
SMALL
NO_CHARGES


@<TRIPOS>ATOM
   1 C1            -0.0889     1.4345     0.0256 C.ar    
   2 C2             0.0148     0.0518    -0.0167 C.ar    
   3 C3            -1.1275    -0.7356     0.0268 C.ar    
   4 C4            -2.3763    -0.1431     0.1126 C.ar    
   5 C5            -2.4851     1.2478     0.1558 C.ar    
   6 C6            -1.3336     2.0353     0.1172 C.ar    
   7 C7            -3.8154     1.8845     0.2469 C.2     
   8 C8            -4.0563     3.2274     0.2957 C.2     
   9 N9            -5.0173     1.2273     0.2907 N.pl3   
  10 C10           -6.0216     2.1608     0.3736 C.2     
  11 C11           -5.4394     3.4095     0.3778 C.2     
  12 O12            1.0328     2.2007    -0.0172 O.3     
  13 C13            0.8493     3.6157    -0.0952 C.3     
  14 C14            2.0806     4.2549    -0.7404 C.3     
  15 O15            3.2148     4.0669     0.1082 O.3     
  16 C16            0.6587     4.1836     1.3127 C.3     
  17 O17           -1.0203    -2.0896    -0.0154 O.3     
  18 C18           -1.4892    -2.7316    -1.1145 C.ar    
  19 C19           -1.5227    -4.1219    -1.1435 C.ar    
  20 C20           -1.9401    -1.9973    -2.2065 C.ar    
  21 C21           -2.4167    -2.6466    -3.3226 C.ar    
  22 C22           -2.4453    -4.0465    -3.3533 C.ar    
  23 C23           -1.9938    -4.7757    -2.2462 C.ar    
  24 C24           -2.9526    -4.7472    -4.5400 C.2     
  25 C25           -7.4632     1.8776     0.4412 C.2     
  26 C26            4.4241     4.6296    -0.4047 C.3     
  27 N27           -8.4085     2.7741     0.5197 N.2     
  28 C28           -9.6444     2.3333     0.5706 C.2     
  29 C29           -9.7921     1.0049     0.5357 C.2     
  30 S30           -8.1924     0.2740     0.4214 S.3     
  31 C31           -1.0371    -4.9096     0.0459 C.3     
  32 O32           -3.3478    -4.1135    -5.4957 O.2     
  33 H33            0.9872    -0.4134    -0.0839 H       
  34 H34           -3.2647    -0.7564     0.1456 H       
  35 H35           -1.4133     3.1118     0.1504 H       
  36 H36           -3.3113     4.0090     0.2750 H       
  37 H37           -5.1384     0.2652     0.2669 H       
  38 H38           -5.9571     4.3557     0.4341 H       
  39 H39           -0.0320     3.8352    -0.6979 H       
  40 H40            2.2684     3.7871    -1.7069 H       
  41 H41            1.9048     5.3214    -0.8810 H       
  42 H42            0.5187     5.2629     1.2533 H       
  43 H43           -0.2185     3.7282     1.7724 H       
  44 H44            1.5399     3.9641     1.9154 H       
  45 H45           -1.9166    -0.9179    -2.1784 H       
  46 H46           -2.7677    -2.0787    -4.1715 H       
  47 H47           -2.0142    -5.8554    -2.2660 H       
  48 H48           -2.9739    -5.8268    -4.5617 H       
  49 H49            5.2373     4.4445     0.2972 H       
  50 H50            4.6605     4.1696    -1.3642 H       
  51 H51            4.2969     5.7038    -0.5383 H       
  52 H52          -10.4895     3.0025     0.6370 H       
  53 H53          -10.7306     0.4715     0.5685 H       
  54 H54           -1.8679    -5.0849     0.7294 H       
  55 H55           -0.6356    -5.8654    -0.2907 H       
  56 H56           -0.2565    -4.3482     0.5593 H       
@<TRIPOS>BOND
   1    1    2 ar
   2    1   12 1
   3    1    6 ar
   4    2    3 ar
   5    2   33 1
   6    3    4 ar
   7    3   17 1
   8    4    5 ar
   9    4   34 1
  10    5    6 ar
  11    5    7 1
  12    6   35 1
  13    7    8 2
  14    7    9 1
  15    8   11 1
  16    8   36 1
  17    9   10 1
  18    9   37 1
  19   10   11 2
  20   10   25 1
  21   11   38 1
  22   12   13 1
  23   13   14 1
  24   13   16 1
  25   13   39 1
  26   14   15 1
  27   14   40 1
  28   14   41 1
  29   15   26 1
  30   16   42 1
  31   16   43 1
  32   16   44 1
  33   17   18 1
  34   18   19 ar
  35   18   20 ar
  36   19   31 1
  37   19   23 ar
  38   20   21 ar
  39   20   45 1
  40   21   22 ar
  41   21   46 1
  42   22   23 ar
  43   22   24 1
  44   23   47 1
  45   24   32 2
  46   24   48 1
  47   25   27 2
  48   25   30 1
  49   26   49 1
  50   26   50 1
  51   26   51 1
  52   27   28 1
  53   28   29 2
  54   28   52 1
  55   29   30 1
  56   29   53 1
  57   31   54 1
  58   31   55 1
  59   31   56 1

#	End of record

