#	Name: ASD09116356
#	Creating user name:	WinNT
#	Creation time:	15. 06. 2019 21:21

#	Modifying user name:	WinNT
#	Modification time:	15. 06. 2019 21:21

#	Program:	/corina/corina34_cracker 3.40 0067  02.08.2006

@<TRIPOS>MOLECULE
ASD09116356
  85   91    0    0    0
SMALL
NO_CHARGES


@<TRIPOS>ATOM
   1 N1            -0.0591     1.5279    -0.5292 N.2     
   2 N2            -0.0823     0.2494    -1.1094 N.pl3   
   3 C3             1.1948     1.9116    -0.4985 C.2     
   4 N4             1.9588     0.9478    -1.0258 N.2     
   5 C5             1.2028    -0.0622    -1.3994 C.2     
   6 N6             1.6430    -1.2346    -1.9838 N.pl3   
   7 C7            -1.2078    -0.5433    -1.3414 C.ar    
   8 N8             1.6572     3.1282     0.0030 N.pl3   
   9 C9             3.0333     3.3745     0.0839 C.ar    
  10 C10            3.5138     4.6735    -0.0230 C.ar    
  11 C11            3.9167     2.3210     0.2766 C.ar    
  12 C12            5.2747     2.5631     0.3570 C.ar    
  13 C13            5.7566     3.8594     0.2447 C.ar    
  14 C14            4.8720     4.9161     0.0568 C.ar    
  15 N15            7.1339     4.1045     0.3268 N.3     
  16 F16            5.3406     6.1785    -0.0530 F       
  17 N17           -1.1865    -1.4602    -2.2972 N.ar    
  18 N18           -2.1984    -2.2091    -2.5576 N.ar    
  19 C19           -3.3307    -2.1056    -1.8805 C.ar    
  20 C20           -3.4384    -1.1796    -0.8390 C.ar    
  21 C21           -2.3546    -0.3735    -0.5616 C.ar    
  22 C22           -4.5158    -2.9294    -2.2140 C.ar    
  23 C23           -5.7518    -2.3005    -2.3717 C.ar    
  24 C24           -5.8380    -0.8033    -2.2549 C.3     
  25 C25           -5.7907    -0.3549    -0.7968 C.3     
  26 C26           -4.7035    -1.1076    -0.0344 C.3     
  27 C27           -4.4121    -4.3077    -2.3657 C.ar    
  28 C28           -5.5406    -5.0505    -2.6541 C.ar    
  29 C29           -6.7672    -4.4260    -2.7891 C.ar    
  30 C30           -6.8731    -3.0532    -2.6471 C.ar    
  31 C31            7.6708     3.6633     1.6204 C.3     
  32 C32            9.1401     4.0767     1.7322 C.3     
  33 C33            9.9325     3.4417     0.5862 C.3     
  34 C34            9.3231     3.8787    -0.7488 C.3     
  35 C35            7.8486     3.4710    -0.7887 C.3     
  36 N36           11.3324     3.8820     0.6544 N.3     
  37 C37           12.1490     3.1997    -0.3592 C.3     
  38 C38           13.5790     3.7425    -0.3082 C.3     
  39 N39           14.1319     3.5336     1.0373 N.3     
  40 C40           13.3153     4.2159     2.0508 C.3     
  41 C41           11.8852     3.6730     1.9999 C.3     
  42 C42           15.5317     3.9738     1.1055 C.3     
  43 C43           16.0333     3.8576     2.5462 C.3     
  44 C44           16.3885     3.0923     0.1945 C.3     
  45 H45            2.5890    -1.3669    -2.1527 H       
  46 H46            1.0060    -1.9252    -2.2250 H       
  47 H47            1.0256     3.8037     0.2958 H       
  48 H48            2.8262     5.4935    -0.1689 H       
  49 H49            3.5423     1.3118     0.3641 H       
  50 H50            5.9612     1.7431     0.5076 H       
  51 H51           -2.3934     0.3667     0.2239 H       
  52 H52           -5.0029    -0.3550    -2.7931 H       
  53 H53           -6.7723    -0.4640    -2.7022 H       
  54 H54           -5.5824     0.7143    -0.7568 H       
  55 H55           -6.7564    -0.5493    -0.3301 H       
  56 H56           -5.0503    -2.1186     0.1795 H       
  57 H57           -4.5022    -0.5923     0.9048 H       
  58 H58           -3.4543    -4.7950    -2.2584 H       
  59 H59           -5.4647    -6.1211    -2.7748 H       
  60 H60           -7.6474    -5.0128    -3.0064 H       
  61 H61           -7.8342    -2.5719    -2.7525 H       
  62 H62            7.1012     4.1253     2.4267 H       
  63 H63            7.5920     2.5787     1.6954 H       
  64 H64            9.2183     5.1622     1.6711 H       
  65 H65            9.5426     3.7354     2.6859 H       
  66 H66            9.8867     2.3559     0.6695 H       
  67 H67            9.4043     4.9611    -0.8489 H       
  68 H68            9.8565     3.3959    -1.5677 H       
  69 H69            7.7690     2.3874    -0.7024 H       
  70 H70            7.4081     3.7934    -1.7321 H       
  71 H71           12.1591     2.1286    -0.1572 H       
  72 H72           11.7267     3.3796    -1.3478 H       
  73 H73           14.1936     3.2174    -1.0394 H       
  74 H74           13.5719     4.8082    -0.5370 H       
  75 H75           13.7376     4.0359     3.0395 H       
  76 H76           13.3051     5.2870     1.8489 H       
  77 H77           11.2707     4.1981     2.7311 H       
  78 H78           11.8924     2.6073     2.2286 H       
  79 H79           15.6027     5.0112     0.7785 H       
  80 H80           15.9623     2.8202     2.8731 H       
  81 H81           17.0720     4.1843     2.5968 H       
  82 H82           15.4229     4.4857     3.1952 H       
  83 H83           17.4272     3.4189     0.2451 H       
  84 H84           16.3175     2.0549     0.5214 H       
  85 H85           16.0312     3.1750    -0.8319 H       
@<TRIPOS>BOND
   1    1    2 1
   2    1    3 2
   3    2    7 1
   4    2    5 1
   5    3    4 1
   6    3    8 1
   7    4    5 2
   8    5    6 1
   9    6   45 1
  10    6   46 1
  11    7   17 ar
  12    7   21 ar
  13    8    9 1
  14    8   47 1
  15    9   10 ar
  16    9   11 ar
  17   10   14 ar
  18   10   48 1
  19   11   12 ar
  20   11   49 1
  21   12   13 ar
  22   12   50 1
  23   13   14 ar
  24   13   15 1
  25   14   16 1
  26   15   31 1
  27   15   35 1
  28   17   18 ar
  29   18   19 ar
  30   19   20 ar
  31   19   22 1
  32   20   21 ar
  33   20   26 1
  34   21   51 1
  35   22   23 ar
  36   22   27 ar
  37   23   24 1
  38   23   30 ar
  39   24   25 1
  40   24   52 1
  41   24   53 1
  42   25   26 1
  43   25   54 1
  44   25   55 1
  45   26   56 1
  46   26   57 1
  47   27   28 ar
  48   27   58 1
  49   28   29 ar
  50   28   59 1
  51   29   30 ar
  52   29   60 1
  53   30   61 1
  54   31   32 1
  55   31   62 1
  56   31   63 1
  57   32   33 1
  58   32   64 1
  59   32   65 1
  60   33   34 1
  61   33   36 1
  62   33   66 1
  63   34   35 1
  64   34   67 1
  65   34   68 1
  66   35   69 1
  67   35   70 1
  68   36   37 1
  69   36   41 1
  70   37   38 1
  71   37   71 1
  72   37   72 1
  73   38   39 1
  74   38   73 1
  75   38   74 1
  76   39   40 1
  77   39   42 1
  78   40   41 1
  79   40   75 1
  80   40   76 1
  81   41   77 1
  82   41   78 1
  83   42   43 1
  84   42   44 1
  85   42   79 1
  86   43   80 1
  87   43   81 1
  88   43   82 1
  89   44   83 1
  90   44   84 1
  91   44   85 1

#	End of record

