#	Name: ASD04590852
#	Creating user name:	WinNT
#	Creation time:	15. 06. 2019 20:51

#	Modifying user name:	WinNT
#	Modification time:	15. 06. 2019 20:51

#	Program:	/corina/corina34_cracker 3.40 0067  02.08.2006

@<TRIPOS>MOLECULE
ASD04590852
  75   80    0    0    0
SMALL
NO_CHARGES


@<TRIPOS>ATOM
   1 N1            -3.5266    -3.8253    -1.2157 N.ar    
   2 C2            -2.2762    -3.3853    -1.2764 C.ar    
   3 N3            -1.2483    -4.1986    -1.4572 N.ar    
   4 C4            -1.4364    -5.5087    -1.5866 C.ar    
   5 C5            -2.7533    -6.0077    -1.5266 C.ar    
   6 C6            -3.8020    -5.1136    -1.3350 C.ar    
   7 N7            -0.5817    -6.5650    -1.7788 N.pl3   
   8 C8            -1.2906    -7.7532    -1.8487 C.ar    
   9 C9            -2.6551    -7.4629    -1.6968 C.ar    
  10 C10           -0.9120    -9.0842    -2.0292 C.ar    
  11 N11           -1.8244   -10.0393    -2.0550 N.ar    
  12 C12           -3.1154    -9.7889    -1.9140 C.ar    
  13 C13           -3.5742    -8.5142    -1.7326 C.ar    
  14 N14           -2.0388    -2.0269    -1.1464 N.pl3   
  15 C15           -3.1096    -1.1359    -1.0678 C.ar    
  16 N16           -4.3485    -1.5735    -1.2203 N.ar    
  17 N17           -5.3630    -0.7901    -1.1559 N.ar    
  18 C18           -5.2379     0.5080    -0.9326 C.ar    
  19 C19           -3.9694     1.0638    -0.7587 C.ar    
  20 C20           -2.8762     0.2180    -0.8224 C.ar    
  21 N21           -6.3696     1.3182    -0.8718 N.3     
  22 C22            0.8743    -6.4520    -1.8943 C.3     
  23 C23           -7.5918     0.5318    -1.0815 C.3     
  24 C24           -8.7981     1.4707    -1.1533 C.3     
  25 C25           -8.8981     2.2660     0.1514 C.3     
  26 C26           -7.5941     3.0380     0.3705 C.3     
  27 C27           -6.4226     2.0536     0.3981 C.3     
  28 N28          -10.0196     3.2110     0.0656 N.3     
  29 C29          -10.2196     3.9079     1.3432 C.3     
  30 C30           -9.8187     4.1682    -1.0304 C.3     
  31 C31            1.2403    -5.4984    -3.0504 C.3     
  32 C32            1.4584    -5.8330    -0.6124 C.3     
  33 C33            2.1589    -4.5249    -1.0341 C.3     
  34 C34            1.4603    -4.1300    -2.3590 C.3     
  35 C35          -11.1441     4.8622    -1.3507 C.3     
  36 C36          -10.8573     2.9505     2.3520 C.3     
  37 O37            0.3997    -9.3989    -2.1796 O.3     
  38 C38            0.7189   -10.7799    -2.3605 C.3     
  39 H39           -4.8220    -5.4649    -1.2850 H       
  40 H40           -3.8202   -10.6068    -1.9431 H       
  41 H41           -4.6310    -8.3227    -1.6191 H       
  42 H42           -1.1280    -1.6950    -1.1101 H       
  43 H43           -3.8453     2.1209    -0.5758 H       
  44 H44           -1.8724     0.5954    -0.6948 H       
  45 H45            1.3122    -7.4351    -2.0674 H       
  46 H46           -7.5094    -0.0256    -2.0146 H       
  47 H47           -7.7223    -0.1644    -0.2530 H       
  48 H48           -8.6749     2.1583    -1.9900 H       
  49 H49           -9.7070     0.8855    -1.2933 H       
  50 H50           -9.0603     1.5813     0.9838 H       
  51 H51           -7.4518     3.7502    -0.4422 H       
  52 H52           -7.6426     3.5725     1.3192 H       
  53 H53           -6.5586     1.3503     1.2197 H       
  54 H54           -5.4911     2.6015     0.5397 H       
  55 H55           -9.2577     4.2500     1.7250 H       
  56 H56          -10.8757     4.7649     1.1908 H       
  57 H57           -9.0814     4.9133    -0.7315 H       
  58 H58           -9.4628     3.6390    -1.9143 H       
  59 H59            2.1552    -5.8288    -3.5423 H       
  60 H60            0.4217    -5.4363    -3.7674 H       
  61 H61            0.6584    -5.6167     0.0958 H       
  62 H62            2.1803    -6.5153    -0.1637 H       
  63 H63            2.0106    -3.7523    -0.2797 H       
  64 H64            3.2221    -4.6980    -1.2004 H       
  65 H65            2.1070    -3.4923    -2.9615 H       
  66 H66            0.5072    -3.6392    -2.1617 H       
  67 H67          -10.9904     5.5885    -2.1488 H       
  68 H68          -11.8749     4.1196    -1.6710 H       
  69 H69          -11.5113     5.3728    -0.4605 H       
  70 H70          -11.7721     2.5344     1.9300 H       
  71 H71          -10.1608     2.1427     2.5768 H       
  72 H72          -11.0933     3.4922     3.2680 H       
  73 H73            0.3789   -11.3479    -1.4945 H       
  74 H74            0.2236   -11.1529    -3.2569 H       
  75 H75            1.7978   -10.8925    -2.4679 H       
@<TRIPOS>BOND
   1    1    2 ar
   2    1    6 ar
   3    2    3 ar
   4    2   14 1
   5    3    4 ar
   6    4    5 ar
   7    4    7 1
   8    5    6 ar
   9    5    9 1
  10    6   39 1
  11    7    8 1
  12    7   22 1
  13    8    9 ar
  14    8   10 ar
  15    9   13 ar
  16   10   11 ar
  17   10   37 1
  18   11   12 ar
  19   12   13 ar
  20   12   40 1
  21   13   41 1
  22   14   15 1
  23   14   42 1
  24   15   16 ar
  25   15   20 ar
  26   16   17 ar
  27   17   18 ar
  28   18   19 ar
  29   18   21 1
  30   19   20 ar
  31   19   43 1
  32   20   44 1
  33   21   23 1
  34   21   27 1
  35   22   32 1
  36   22   31 1
  37   22   45 1
  38   23   24 1
  39   23   46 1
  40   23   47 1
  41   24   25 1
  42   24   48 1
  43   24   49 1
  44   25   26 1
  45   25   28 1
  46   25   50 1
  47   26   27 1
  48   26   51 1
  49   26   52 1
  50   27   53 1
  51   27   54 1
  52   28   29 1
  53   28   30 1
  54   29   36 1
  55   29   55 1
  56   29   56 1
  57   30   35 1
  58   30   57 1
  59   30   58 1
  60   31   34 1
  61   31   59 1
  62   31   60 1
  63   32   33 1
  64   32   61 1
  65   32   62 1
  66   33   34 1
  67   33   63 1
  68   33   64 1
  69   34   65 1
  70   34   66 1
  71   35   67 1
  72   35   68 1
  73   35   69 1
  74   36   70 1
  75   36   71 1
  76   36   72 1
  77   37   38 1
  78   38   73 1
  79   38   74 1
  80   38   75 1

#	End of record

