#	Name: ASD00070098
#	Creating user name:	WinNT
#	Creation time:	15. 06. 2019 18:30

#	Modifying user name:	WinNT
#	Modification time:	15. 06. 2019 18:30

#	Program:	/corina/corina34_cracker 3.40 0067  02.08.2006

@<TRIPOS>MOLECULE
ASD00070098
  83   88    0    0    0
SMALL
NO_CHARGES


@<TRIPOS>ATOM
   1 C1            -0.0183     1.4710     0.0102 C.2     
   2 C2             0.0018    -0.0041     0.0021 C.ar    
   3 C3             1.1895    -0.6868    -0.2763 C.ar    
   4 C4             1.2051    -2.0628    -0.2827 C.ar    
   5 C5             0.0397    -2.7749    -0.0127 C.ar    
   6 O6             0.9989     2.0942    -0.2254 O.2     
   7 N7            -1.1654     2.1279     0.2733 N.am    
   8 C8            -1.1854     3.5927     0.2813 C.3     
   9 C9            -2.3313     4.0822     1.1690 C.3     
  10 C10           -2.3522     5.6121     1.1775 C.3     
  11 C11           -2.5560     6.1272    -0.2487 C.3     
  12 C12           -1.4100     5.6377    -1.1364 C.3     
  13 C13           -1.3892     4.1078    -1.1448 C.3     
  14 C14           -2.5769     7.6570    -0.2403 C.3     
  15 C15           -2.9045     8.1704    -1.6439 C.3     
  16 N16           -2.9245     9.6392    -1.6358 N.3     
  17 C17           -2.9997    10.1720    -3.0021 C.3     
  18 C18           -2.8721    11.6966    -2.9643 C.3     
  19 C19           -4.0003    12.2772    -2.1072 C.3     
  20 C20           -3.9287    11.6697    -0.7035 C.3     
  21 C21           -4.0257    10.1459    -0.8069 C.3     
  22 O22           -5.8091    16.6043    -2.9303 O.3     
  23 C23           -6.9067    15.6772    -2.9807 C.3     
  24 C24           -6.1946    14.3097    -3.1091 C.3     
  25 C25           -4.8461    14.5988    -2.4786 C.ar    
  26 C26           -4.7169    15.9803    -2.4099 C.ar    
  27 C27           -3.8451    13.7735    -2.0169 C.ar    
  28 C28           -2.6968    14.3186    -1.4696 C.ar    
  29 C29           -2.5600    15.6918    -1.3888 C.ar    
  30 C30           -3.5604    16.5206    -1.8536 C.ar    
  31 C31           -1.1447    -2.0979     0.2649 C.ar    
  32 C32           -1.1655    -0.7220     0.2784 C.ar    
  33 N33            0.0585    -4.1652    -0.0208 N.3     
  34 C34            1.3104    -4.6765     0.5420 C.3     
  35 C35            1.1499    -6.1538     0.9140 C.3     
  36 S36            0.8042    -7.1009    -0.5990 S.o2    
  37 C37           -0.5964    -6.1647    -1.2828 C.3     
  38 C38           -0.2050    -4.6860    -1.3642 C.3     
  39 O39            1.9117    -6.9724    -1.4801 O.2     
  40 O40            0.3504    -8.3965    -0.2319 O.2     
  41 H41            2.0937    -0.1350    -0.4865 H       
  42 H42            2.1223    -2.5909    -0.4977 H       
  43 H43           -1.9777     1.6307     0.4573 H       
  44 H44           -0.2386     3.9668     0.6710 H       
  45 H45           -3.2781     3.7081     0.7794 H       
  46 H46           -2.1861     3.7152     2.1851 H       
  47 H47           -3.1686     5.9608     1.8099 H       
  48 H48           -1.4055     5.9862     1.5671 H       
  49 H49           -3.5027     5.7531    -0.6383 H       
  50 H50           -1.5552     6.0047    -2.1525 H       
  51 H51           -0.4633     6.0118    -0.7468 H       
  52 H52           -0.5728     3.7591    -1.7773 H       
  53 H53           -2.3359     3.7337    -1.5345 H       
  54 H54           -3.3352     8.0062     0.4605 H       
  55 H55           -1.6000     8.0320     0.0649 H       
  56 H56           -2.1461     7.8212    -2.3446 H       
  57 H57           -3.8814     7.7953    -1.9491 H       
  58 H58           -2.1895     9.7545    -3.5999 H       
  59 H59           -3.9567     9.8986    -3.4464 H       
  60 H60           -1.9094    11.9706    -2.5328 H       
  61 H61           -2.9436    12.0930    -3.9771 H       
  62 H62           -4.9623    12.0365    -2.5597 H       
  63 H63           -2.9826    11.9433    -0.2364 H       
  64 H64           -4.7551    12.0469    -0.1012 H       
  65 H65           -4.9779     9.8726    -1.2615 H       
  66 H66           -3.9606     9.7094     0.1898 H       
  67 H67           -7.4929    15.7225    -2.0628 H       
  68 H68           -7.5344    15.8688    -3.8509 H       
  69 H69           -6.7278    13.5390    -2.5524 H       
  70 H70           -6.0826    14.0255    -4.1554 H       
  71 H71           -1.9105    13.6734    -1.1066 H       
  72 H72           -1.6655    16.1182    -0.9593 H       
  73 H73           -3.4454    17.5924    -1.7870 H       
  74 H74           -2.0473    -2.6531     0.4736 H       
  75 H75           -2.0846    -0.1973     0.4939 H       
  76 H76            2.1073    -4.5731    -0.1944 H       
  77 H77            1.5667    -4.1044     1.4337 H       
  78 H78            2.0700    -6.5178     1.3711 H       
  79 H79            0.3216    -6.2669     1.6134 H       
  80 H80           -0.8324    -6.5360    -2.2800 H       
  81 H81           -1.4641    -6.2780    -0.6329 H       
  82 H82           -1.0186    -4.1206    -1.8185 H       
  83 H83            0.6917    -4.5819    -1.9752 H       
@<TRIPOS>BOND
   1    1    2 1
   2    1    6 2
   3    1    7 am
   4    2    3 ar
   5    2   32 ar
   6    3    4 ar
   7    3   41 1
   8    4    5 ar
   9    4   42 1
  10    5   31 ar
  11    5   33 1
  12    7    8 1
  13    7   43 1
  14    8    9 1
  15    8   13 1
  16    8   44 1
  17    9   10 1
  18    9   45 1
  19    9   46 1
  20   10   11 1
  21   10   47 1
  22   10   48 1
  23   11   12 1
  24   11   14 1
  25   11   49 1
  26   12   13 1
  27   12   50 1
  28   12   51 1
  29   13   52 1
  30   13   53 1
  31   14   15 1
  32   14   54 1
  33   14   55 1
  34   15   16 1
  35   15   56 1
  36   15   57 1
  37   16   17 1
  38   16   21 1
  39   17   18 1
  40   17   58 1
  41   17   59 1
  42   18   19 1
  43   18   60 1
  44   18   61 1
  45   19   20 1
  46   19   27 1
  47   19   62 1
  48   20   21 1
  49   20   63 1
  50   20   64 1
  51   21   65 1
  52   21   66 1
  53   22   23 1
  54   22   26 1
  55   23   24 1
  56   23   67 1
  57   23   68 1
  58   24   25 1
  59   24   69 1
  60   24   70 1
  61   25   26 ar
  62   25   27 ar
  63   26   30 ar
  64   27   28 ar
  65   28   29 ar
  66   28   71 1
  67   29   30 ar
  68   29   72 1
  69   30   73 1
  70   31   32 ar
  71   31   74 1
  72   32   75 1
  73   33   34 1
  74   33   38 1
  75   34   35 1
  76   34   76 1
  77   34   77 1
  78   35   36 1
  79   35   78 1
  80   35   79 1
  81   36   37 1
  82   36   39 2
  83   36   40 2
  84   37   38 1
  85   37   80 1
  86   37   81 1
  87   38   82 1
  88   38   83 1

#	End of record

