#	Name: ASD02030419
#	Creating user name:	WinNT
#	Creation time:	15. 06. 2019 20:15

#	Modifying user name:	WinNT
#	Modification time:	15. 06. 2019 20:15

#	Program:	/corina/corina34_cracker 3.40 0067  02.08.2006

@<TRIPOS>MOLECULE
ASD02030419
  45   47    0    0    0
SMALL
NO_CHARGES


@<TRIPOS>ATOM
   1 C1            -0.0164     1.3558     0.0095 C.ar    
   2 C2             0.0021    -0.0041     0.0020 C.ar    
   3 C3             1.2179    -0.7054    -0.0134 C.ar    
   4 C4             2.4248    -0.0148    -0.0212 C.ar    
   5 C5             1.1882     2.0772     0.0019 C.ar    
   6 C6             2.3323     4.1988     0.0028 C.ar    
   7 C7             1.1841     3.4906     0.0099 C.ar    
   8 C8             2.4177     1.3783    -0.0136 C.ar    
   9 C9             3.6660     2.1483    -0.0214 C.ar    
  10 C10            3.5935     3.5594    -0.0132 C.ar    
  11 C11            4.9117     1.5188    -0.0361 C.ar    
  12 C12            6.0508     2.2727    -0.0424 C.ar    
  13 C13            5.9840     3.6610    -0.0340 C.ar    
  14 C14            4.7812     4.3045    -0.0200 C.ar    
  15 C15            1.2153    -2.1815    -0.0208 C.2     
  16 O16            0.0473    -2.8532    -0.0129 O.3     
  17 O17            2.2663    -2.7907    -0.0342 O.2     
  18 C18            2.2694     5.7045     0.0110 C.3     
  19 C19            2.3605     6.2265    -1.4243 C.3     
  20 C20            2.2967     7.7551    -1.4161 C.3     
  21 C21            2.3877     8.2771    -2.8514 C.3     
  22 C22            1.1556     7.8248    -3.6377 C.3     
  23 C23            2.4495     9.8058    -2.8352 C.3     
  24 H24           -0.9595     1.8819     0.0168 H       
  25 H25           -0.9294    -0.5506     0.0084 H       
  26 H26            3.3604    -0.5541    -0.0327 H       
  27 H27            0.2404     4.0155     0.0217 H       
  28 H28            4.9746     0.4407    -0.0421 H       
  29 H29            7.0141     1.7846    -0.0538 H       
  30 H30            6.8968     4.2381    -0.0389 H       
  31 H31            4.7441     5.3839    -0.0134 H       
  32 H32            0.0962    -3.8189    -0.0182 H       
  33 H33            1.3278     6.0264     0.4557 H       
  34 H34            3.1008     6.0997     0.5947 H       
  35 H35            3.3021     5.9045    -1.8690 H       
  36 H36            1.5291     5.8313    -2.0081 H       
  37 H37            1.3550     8.0771    -0.9714 H       
  38 H38            3.1280     8.1503    -0.8323 H       
  39 H39            3.2863     7.8822    -3.3253 H       
  40 H40            1.1115     6.7358    -3.6492 H       
  41 H41            0.2570     8.2198    -3.1637 H       
  42 H42            1.2204     8.1967    -4.6602 H       
  43 H43            3.3273    10.1280    -2.2750 H       
  44 H44            2.5143    10.1777    -3.8577 H       
  45 H45            1.5509    10.2008    -2.3612 H       
@<TRIPOS>BOND
   1    1    2 ar
   2    1    5 ar
   3    1   24 1
   4    2    3 ar
   5    2   25 1
   6    3    4 ar
   7    3   15 1
   8    4    8 ar
   9    4   26 1
  10    5    8 ar
  11    5    7 ar
  12    6    7 ar
  13    6   10 ar
  14    6   18 1
  15    7   27 1
  16    8    9 ar
  17    9   11 ar
  18    9   10 ar
  19   10   14 ar
  20   11   12 ar
  21   11   28 1
  22   12   13 ar
  23   12   29 1
  24   13   14 ar
  25   13   30 1
  26   14   31 1
  27   15   16 1
  28   15   17 2
  29   16   32 1
  30   18   19 1
  31   18   33 1
  32   18   34 1
  33   19   20 1
  34   19   35 1
  35   19   36 1
  36   20   21 1
  37   20   37 1
  38   20   38 1
  39   21   22 1
  40   21   23 1
  41   21   39 1
  42   22   40 1
  43   22   41 1
  44   22   42 1
  45   23   43 1
  46   23   44 1
  47   23   45 1

#	End of record

