#	Name: ASD03330775
#	Creating user name:	WinNT
#	Creation time:	15. 06. 2019 20:37

#	Modifying user name:	WinNT
#	Modification time:	15. 06. 2019 20:37

#	Program:	/corina/corina34_cracker 3.40 0067  02.08.2006

@<TRIPOS>MOLECULE
ASD03330775
  57   59    0    0    0
SMALL
NO_CHARGES


@<TRIPOS>ATOM
   1 C1            -0.0028     1.3638    -0.1257 C.2     
   2 N2             0.0178     0.0076    -0.2180 N.pl3   
   3 C3             1.2719     1.7667     0.1344 C.2     
   4 N4             2.0515     0.6643     0.1801 N.2     
   5 C5             1.3083    -0.3957    -0.0360 C.2     
   6 C6             1.7895    -1.7939    -0.0755 C.ar    
   7 C7             1.7206     3.1566     0.3303 C.2     
   8 O8             0.9194     4.0693     0.2643 O.2     
   9 C9             3.4649     4.7982     0.7773 C.3     
  10 N10            3.0188     3.4164     0.5825 N.am    
  11 C11            4.9507     4.9083     0.4291 C.3     
  12 C12            3.2553     5.1957     2.2157 C.2     
  13 O13            2.7800     4.4028     3.0009 O.2     
  14 C14           -1.1496    -0.8458    -0.4557 C.3     
  15 C15           -1.9672    -0.2671    -1.6147 C.3     
  16 C16           -2.9654     0.7555    -1.0815 C.3     
  17 N17           -2.4175     1.4764     0.0691 N.3     
  18 C18           -1.2163     2.2395    -0.3009 C.3     
  19 C19            3.0820    -2.0771    -0.5186 C.ar    
  20 C20            0.9545    -2.8335     0.3354 C.ar    
  21 C21            1.4080    -4.1354     0.2966 C.ar    
  22 C22            2.6907    -4.4119    -0.1493 C.ar    
  23 C23            3.5259    -3.3824    -0.5536 C.ar    
  24 C24           -3.4312     2.3509     0.6738 C.3     
  25 N25            3.5959     6.4322     2.6297 N.am    
  26 C26            5.1474     4.6258    -1.0617 C.3     
  27 C27            4.4572     5.7167    -1.8829 C.3     
  28 C28            6.6427     4.6129    -1.3853 C.3     
  29 F29            3.1305    -5.6888    -0.1846 F       
  30 H30            2.8899     5.4603     0.1299 H       
  31 H31            3.6578     2.6885     0.6351 H       
  32 H32            5.3040     5.9137     0.6581 H       
  33 H33            5.5157     4.1826     1.0141 H       
  34 H34           -0.8190    -1.8528    -0.7101 H       
  35 H35           -1.7652    -0.8796     0.4432 H       
  36 H36           -1.2969     0.2169    -2.3250 H       
  37 H37           -2.5053    -1.0717    -2.1159 H       
  38 H38           -3.2025     1.4690    -1.8707 H       
  39 H39           -3.8778     0.2410    -0.7799 H       
  40 H40           -1.1291     3.1159     0.3413 H       
  41 H41           -1.2910     2.5548    -1.3416 H       
  42 H42            3.7336    -1.2756    -0.8339 H       
  43 H43           -0.0450    -2.6190     0.6837 H       
  44 H44            0.7625    -4.9408     0.6144 H       
  45 H45            4.5246    -3.6031    -0.9003 H       
  46 H46           -4.2768     1.7499     1.0083 H       
  47 H47           -2.9978     2.8744     1.5260 H       
  48 H48           -3.7712     3.0775    -0.0642 H       
  49 H49            3.9760     7.0664     2.0017 H       
  50 H50            3.4610     6.6881     3.5555 H       
  51 H51            4.7139     3.6565    -1.3081 H       
  52 H52            4.5974     5.5155    -2.9450 H       
  53 H53            3.3919     5.7259    -1.6524 H       
  54 H54            4.8907     6.6860    -1.6365 H       
  55 H55            7.1344     3.8357    -0.8003 H       
  56 H56            6.7829     4.4116    -2.4474 H       
  57 H57            7.0762     5.5822    -1.1389 H       
@<TRIPOS>BOND
   1    1    2 1
   2    1    3 2
   3    1   18 1
   4    2   14 1
   5    2    5 1
   6    3    4 1
   7    3    7 1
   8    4    5 2
   9    5    6 1
  10    6   20 ar
  11    6   19 ar
  12    7    8 2
  13    7   10 am
  14    9   10 1
  15    9   11 1
  16    9   12 1
  17    9   30 1
  18   10   31 1
  19   11   26 1
  20   11   32 1
  21   11   33 1
  22   12   13 2
  23   12   25 am
  24   14   15 1
  25   14   34 1
  26   14   35 1
  27   15   16 1
  28   15   36 1
  29   15   37 1
  30   16   17 1
  31   16   38 1
  32   16   39 1
  33   17   18 1
  34   17   24 1
  35   18   40 1
  36   18   41 1
  37   19   23 ar
  38   19   42 1
  39   20   21 ar
  40   20   43 1
  41   21   22 ar
  42   21   44 1
  43   22   23 ar
  44   22   29 1
  45   23   45 1
  46   24   46 1
  47   24   47 1
  48   24   48 1
  49   25   49 1
  50   25   50 1
  51   26   28 1
  52   26   27 1
  53   26   51 1
  54   27   52 1
  55   27   53 1
  56   27   54 1
  57   28   55 1
  58   28   56 1
  59   28   57 1

#	End of record

