#	Name: ASD01814045
#	Creating user name:	WinNT
#	Creation time:	15. 06. 2019 19:31

#	Modifying user name:	WinNT
#	Modification time:	15. 06. 2019 19:31

#	Program:	/corina/corina34_cracker 3.40 0067  02.08.2006

@<TRIPOS>MOLECULE
ASD01814045
  48   50    0    0    0
SMALL
NO_CHARGES


@<TRIPOS>ATOM
   1 C1            -0.5553     0.7238     0.2433 C.ar    
   2 C2            -0.2947    -0.6376     0.2292 C.ar    
   3 C3             0.9980    -1.1073     0.1358 C.ar    
   4 C4             2.0604    -0.2121     0.0538 C.ar    
   5 C5             1.7966     1.1686     0.0675 C.ar    
   6 C6             0.4820     1.6316     0.1631 C.ar    
   7 N7             3.3568    -0.6709    -0.0394 N.pl3   
   8 C8             4.4127     0.1492    -0.1198 C.2     
   9 C9             4.2790     1.5227    -0.1156 C.2     
  10 C10            2.9304     2.1057    -0.0200 C.2     
  11 F11            0.2274     2.9584     0.1764 F       
  12 O12            2.7592     3.3122    -0.0127 O.2     
  13 C13            5.4628     2.3889    -0.2046 C.2     
  14 O14            5.3192     3.7293    -0.1995 O.3     
  15 O15            6.5716     1.8967    -0.2827 O.2     
  16 C16            3.5898    -2.1172    -0.0506 C.3     
  17 C17            3.5657    -2.6189    -1.4715 C.ar    
  18 C18            4.7345    -2.6579    -2.2093 C.ar    
  19 C19            4.7158    -3.1172    -3.5117 C.ar    
  20 C20            3.5215    -3.5405    -4.0799 C.ar    
  21 C21            2.3495    -3.5005    -3.3362 C.ar    
  22 C22            2.3758    -3.0447    -2.0327 C.ar    
  23 N23            3.4991    -4.0060    -5.3996 N.am    
  24 C24            4.5417    -4.7094    -5.8839 C.2     
  25 O25            4.4812    -5.2374    -7.1210 O.3     
  26 O26            5.5364    -4.8672    -5.2040 O.2     
  27 C27            5.6408    -5.9827    -7.5772 C.3     
  28 C28            5.4840    -7.4554    -7.1930 C.3     
  29 C29            5.7588    -5.8621    -9.0978 C.3     
  30 H30           -1.5740     1.0757     0.3128 H       
  31 H31           -1.1139    -1.3385     0.2925 H       
  32 H32            1.1865    -2.1707     0.1267 H       
  33 H33            5.4018    -0.2788    -0.1899 H       
  34 H34            6.1269     4.2576    -0.2600 H       
  35 H35            4.5614    -2.3322     0.3942 H       
  36 H36            2.8089    -2.6154     0.5239 H       
  37 H37            5.6630    -2.3286    -1.7667 H       
  38 H38            5.6289    -3.1468    -4.0877 H       
  39 H39            1.4191    -3.8287    -3.7755 H       
  40 H40            1.4647    -3.0136    -1.4536 H       
  41 H41            2.7331    -3.8224    -5.9657 H       
  42 H42            6.5390    -5.5790    -7.1099 H       
  43 H43            5.4000    -7.5413    -6.1097 H       
  44 H44            4.5858    -7.8591    -7.6603 H       
  45 H45            6.3546    -8.0148    -7.5354 H       
  46 H46            5.8704    -4.8129    -9.3715 H       
  47 H47            6.6293    -6.4216    -9.4403 H       
  48 H48            4.8605    -6.2658    -9.5651 H       
@<TRIPOS>BOND
   1    1    2 ar
   2    1    6 ar
   3    1   30 1
   4    2    3 ar
   5    2   31 1
   6    3    4 ar
   7    3   32 1
   8    4    5 ar
   9    4    7 1
  10    5    6 ar
  11    5   10 1
  12    6   11 1
  13    7    8 1
  14    7   16 1
  15    8    9 2
  16    8   33 1
  17    9   10 1
  18    9   13 1
  19   10   12 2
  20   13   14 1
  21   13   15 2
  22   14   34 1
  23   16   17 1
  24   16   35 1
  25   16   36 1
  26   17   18 ar
  27   17   22 ar
  28   18   19 ar
  29   18   37 1
  30   19   20 ar
  31   19   38 1
  32   20   21 ar
  33   20   23 1
  34   21   22 ar
  35   21   39 1
  36   22   40 1
  37   23   24 am
  38   23   41 1
  39   24   25 1
  40   24   26 2
  41   25   27 1
  42   27   28 1
  43   27   29 1
  44   27   42 1
  45   28   43 1
  46   28   44 1
  47   28   45 1
  48   29   46 1
  49   29   47 1
  50   29   48 1

#	End of record

