#	Name: ASD01881361
#	Creating user name:	WinNT
#	Creation time:	15. 06. 2019 19:42

#	Modifying user name:	WinNT
#	Modification time:	15. 06. 2019 19:42

#	Program:	/corina/corina34_cracker 3.40 0067  02.08.2006

@<TRIPOS>MOLECULE
ASD01881361
  25   25    0    0    0
SMALL
NO_CHARGES


@<TRIPOS>ATOM
   1 C1            -0.0169     1.3955     0.0097 C.2     
   2 C2             0.0021    -0.0041     0.0020 C.2     
   3 C3             1.2188    -0.6604    -0.0131 C.2     
   4 C4             2.4049     0.1004    -0.0203 C.2     
   5 C5             2.3374     1.4490    -0.0124 C.2     
   6 N6             1.1377     2.0872     0.0024 N.am    
   7 O7            -1.0834     1.9904     0.0180 O.2     
   8 O8             1.2700    -2.0139    -0.0204 O.3     
   9 C9             1.1006     3.5517     0.0101 C.3     
  10 C10            1.1011     4.0543     1.4552 C.3     
  11 C11            1.0623     5.5837     1.4633 C.3     
  12 C12            1.0629     6.0863     2.9084 C.3     
  13 H13           -0.9215    -0.5638     0.0082 H       
  14 H14            3.3652    -0.3936    -0.0318 H       
  15 H15            3.2489     2.0281    -0.0176 H       
  16 H16            2.1676    -2.3735    -0.0309 H       
  17 H17            1.9762     3.9401    -0.5100 H       
  18 H18            0.1969     3.8949    -0.4936 H       
  19 H19            0.2255     3.6659     1.9753 H       
  20 H20            2.0048     3.7111     1.9589 H       
  21 H21            1.9380     5.9721     0.9432 H       
  22 H22            0.1587     5.9269     0.9596 H       
  23 H23            0.1872     5.6979     3.4284 H       
  24 H24            1.9665     5.7431     3.4120 H       
  25 H25            1.0352     7.1760     2.9141 H       
@<TRIPOS>BOND
   1    1    2 1
   2    1    6 am
   3    1    7 2
   4    2    3 2
   5    2   13 1
   6    3    4 1
   7    3    8 1
   8    4    5 2
   9    4   14 1
  10    5    6 1
  11    5   15 1
  12    6    9 1
  13    8   16 1
  14    9   10 1
  15    9   17 1
  16    9   18 1
  17   10   11 1
  18   10   19 1
  19   10   20 1
  20   11   12 1
  21   11   21 1
  22   11   22 1
  23   12   23 1
  24   12   24 1
  25   12   25 1

#	End of record

