#	Name: ASD03331437
#	Creating user name:	WinNT
#	Creation time:	15. 06. 2019 20:39

#	Modifying user name:	WinNT
#	Modification time:	15. 06. 2019 20:39

#	Program:	/corina/corina34_cracker 3.40 0067  02.08.2006

@<TRIPOS>MOLECULE
ASD03331437
  83   87    0    0    0
SMALL
NO_CHARGES


@<TRIPOS>ATOM
   1 N1            -2.0341     3.7856     7.3920 N.3     
   2 C2            -0.7786     4.3469     7.9071 C.3     
   3 C3            -0.9448     4.6983     9.3873 C.3     
   4 C4            -1.3192     3.4353    10.1678 C.3     
   5 C5            -2.6035     2.8437     9.5804 C.3     
   6 C6            -2.3893     2.5460     8.0946 C.3     
   7 N7            -2.8071     3.9322     3.2695 N.am    
   8 C8            -3.1649     2.6770     3.9442 C.3     
   9 C9            -3.2628     2.9376     5.4506 C.3     
  10 C10           -1.9562     3.5649     5.9418 C.3     
  11 C11           -1.7330     4.9032     5.2337 C.3     
  12 C12           -1.6178     4.6649     3.7248 C.3     
  13 C13           -0.8081     2.6379     5.6360 C.2     
  14 O14            0.2067     3.0740     5.1350 O.2     
  15 N15           -0.9090     1.3241     5.9192 N.am    
  16 F16           -0.2844     2.4993    10.0667 F       
  17 F17           -1.5268     3.7611    11.5124 F       
  18 C18           -3.5526     4.3997     2.2486 C.2     
  19 O19           -3.3017     5.4846     1.7593 O.2     
  20 N20           -6.6587     3.0089     0.9464 N.pl3   
  21 C21           -5.9236     4.0606     1.3841 C.2     
  22 C22           -4.6712     3.5969     1.7255 C.2     
  23 C23           -4.6635     2.1995     1.4776 C.2     
  24 C24           -5.8913     1.8691     1.0022 C.2     
  25 C25           -6.3942     5.4890     1.4806 C.3     
  26 C26           -7.0100     5.7310     2.8601 C.3     
  27 C27           -7.4878     7.1812     2.9581 C.3     
  28 N28           -8.0774     7.4128     4.2791 N.am    
  29 S29           -8.3399     8.9597     4.8089 S.o2    
  30 O30           -8.8858     8.7963     6.1107 O.2     
  31 O31           -7.0932     9.6131     4.6140 O.2     
  32 C32           -9.5898     9.6213     3.6729 C.3     
  33 C33           -6.3296     0.5123     0.6099 C.ar    
  34 C34           -5.5477    -0.2537    -0.2577 C.ar    
  35 C35           -5.9624    -1.5198    -0.6196 C.ar    
  36 C36           -7.1505    -2.0298    -0.1240 C.ar    
  37 C37           -7.9295    -1.2746     0.7360 C.ar    
  38 C38           -7.5229    -0.0101     1.1095 C.ar    
  39 Cl39          -7.6656    -3.6227    -0.5834 Cl      
  40 Cl40          -4.0583     0.3850    -0.8801 Cl      
  41 C41           -7.9896     3.0722     0.5121 C.ar    
  42 C42           -8.2945     2.8696    -0.8272 C.ar    
  43 C43           -9.6069     2.9320    -1.2526 C.ar    
  44 C44          -10.6178     3.1961    -0.3452 C.ar    
  45 C45          -10.3165     3.3988     0.9902 C.ar    
  46 C46           -9.0062     3.3318     1.4215 C.ar    
  47 Cl47         -12.2666     3.2739    -0.8830 Cl      
  48 H48            0.0199     3.6134     7.7954 H       
  49 H49           -0.5260     5.2468     7.3463 H       
  50 H50           -0.0081     5.1004     9.7732 H       
  51 H51           -1.7339     5.4421     9.4983 H       
  52 H52           -2.8519     1.9208    10.1044 H       
  53 H53           -3.4187     3.5583     9.6945 H       
  54 H54           -3.3065     2.1380     7.6700 H       
  55 H55           -1.5832     1.8210     7.9821 H       
  56 H56           -4.1259     2.3228     3.5714 H       
  57 H57           -2.3973     1.9273     3.7522 H       
  58 H58           -4.0904     3.6186     5.6490 H       
  59 H59           -3.4329     1.9958     5.9724 H       
  60 H60           -2.5751     5.5657     5.4341 H       
  61 H61           -0.8143     5.3604     5.6010 H       
  62 H62           -0.7240     4.0773     3.5148 H       
  63 H63           -1.5580     5.6223     3.2072 H       
  64 H64           -1.7490     0.9602     6.2398 H       
  65 H65           -0.1416     0.7424     5.8023 H       
  66 H66           -3.8355     1.5249     1.6377 H       
  67 H67           -5.5478     6.1608     1.3376 H       
  68 H68           -7.1422     5.6780     0.7106 H       
  69 H69           -7.8564     5.0592     3.0031 H       
  70 H70           -6.2620     5.5420     3.6301 H       
  71 H71           -6.6414     7.8530     2.8152 H       
  72 H72           -8.2358     7.3701     2.1881 H       
  73 H73           -8.3141     6.6602     4.8433 H       
  74 H74          -10.4921     9.0127     3.7310 H       
  75 H75           -9.8259    10.6485     3.9507 H       
  76 H76           -9.2024     9.6003     2.6543 H       
  77 H77           -5.3592    -2.1133    -1.2906 H       
  78 H78           -8.8553    -1.6778     1.1188 H       
  79 H79           -8.1294     0.5759     1.7843 H       
  80 H80           -7.5059     2.6639    -1.5358 H       
  81 H81           -9.8445     2.7749    -2.2944 H       
  82 H82          -11.1071     3.6051     1.6964 H       
  83 H83           -8.7721     3.4852     2.4646 H       
@<TRIPOS>BOND
   1    1    2 1
   2    1    6 1
   3    1   10 1
   4    2    3 1
   5    2   48 1
   6    2   49 1
   7    3    4 1
   8    3   50 1
   9    3   51 1
  10    4    5 1
  11    4   16 1
  12    4   17 1
  13    5    6 1
  14    5   52 1
  15    5   53 1
  16    6   54 1
  17    6   55 1
  18    7    8 1
  19    7   12 1
  20    7   18 am
  21    8    9 1
  22    8   56 1
  23    8   57 1
  24    9   10 1
  25    9   58 1
  26    9   59 1
  27   10   11 1
  28   10   13 1
  29   11   12 1
  30   11   60 1
  31   11   61 1
  32   12   62 1
  33   12   63 1
  34   13   14 2
  35   13   15 am
  36   15   64 1
  37   15   65 1
  38   18   19 2
  39   18   22 1
  40   20   21 1
  41   20   24 1
  42   20   41 1
  43   21   22 2
  44   21   25 1
  45   22   23 1
  46   23   24 2
  47   23   66 1
  48   24   33 1
  49   25   26 1
  50   25   67 1
  51   25   68 1
  52   26   27 1
  53   26   69 1
  54   26   70 1
  55   27   28 1
  56   27   71 1
  57   27   72 1
  58   28   29 am
  59   28   73 1
  60   29   30 2
  61   29   31 2
  62   29   32 1
  63   32   74 1
  64   32   75 1
  65   32   76 1
  66   33   34 ar
  67   33   38 ar
  68   34   35 ar
  69   34   40 1
  70   35   36 ar
  71   35   77 1
  72   36   37 ar
  73   36   39 1
  74   37   38 ar
  75   37   78 1
  76   38   79 1
  77   41   42 ar
  78   41   46 ar
  79   42   43 ar
  80   42   80 1
  81   43   44 ar
  82   43   81 1
  83   44   45 ar
  84   44   47 1
  85   45   46 ar
  86   45   82 1
  87   46   83 1

#	End of record

