#	Name: ASD03910059
#	Creating user name:	WinNT
#	Creation time:	15. 06. 2019 20:47

#	Modifying user name:	WinNT
#	Modification time:	15. 06. 2019 20:47

#	Program:	/corina/corina34_cracker 3.40 0067  02.08.2006

@<TRIPOS>MOLECULE
ASD03910059
  71   73    0    0    0
SMALL
NO_CHARGES


@<TRIPOS>ATOM
   1 C1             0.0420    16.2572    -5.8288 C.ar    
   2 C2             1.1160    17.1057    -6.0257 C.ar    
   3 C3             2.3877    16.7153    -5.6481 C.ar    
   4 C4             2.5890    15.4757    -5.0733 C.ar    
   5 C5             1.5125    14.6212    -4.8742 C.ar    
   6 C6             0.2357    15.0188    -5.2489 C.ar    
   7 N7             1.7131    13.3647    -4.2922 N.am    
   8 C8             0.7660    12.8327    -3.4944 C.2     
   9 O9            -0.2202    13.4788    -3.2097 O.2     
  10 C10           -0.2557    11.0822    -2.0986 C.ar    
  11 C11           -1.3641    10.4830    -2.6678 C.ar    
  12 C12           -2.4521    10.1535    -1.8829 C.ar    
  13 C13           -2.4319    10.4243    -0.5224 C.ar    
  14 C14           -1.3184    11.0255     0.0463 C.ar    
  15 C15           -0.2330    11.3531    -0.7430 C.ar    
  16 O16           -3.5011    10.1015     0.2518 O.3     
  17 C17           -3.3982    10.3814     1.6493 C.3     
  18 C18           -2.2762     9.5782     2.2551 C.2     
  19 C19           -1.3422    16.6867    -6.2418 C.3     
  20 C20            3.5552    17.6432    -5.8645 C.3     
  21 O21           -1.5827    10.0640     3.1234 O.2     
  22 N22           -2.0433     8.3199     1.8318 N.am    
  23 C23            0.9323    11.4349    -2.9561 C.3     
  24 C24           -0.8919     7.5751     2.3472 C.3     
  25 C25            0.3454     7.9714     1.5837 C.2     
  26 O26            0.2729     8.7919     0.6997 O.2     
  27 O27            1.5281     7.4129     1.8856 O.3     
  28 C28           -1.1375     6.0745     2.1769 C.3     
  29 C29           -3.1492    11.8839     1.8690 C.3     
  30 C30           -4.3374    12.4106     2.7001 C.3     
  31 C31           -4.8787    11.1547     3.4272 C.3     
  32 C32           -4.7286    10.0463     2.3547 C.3     
  33 C33           -2.3415     5.6555     3.0229 C.3     
  34 C34           -2.6564     4.2046     2.7645 C.2     
  35 O35           -1.9866     3.5708     1.9838 O.2     
  36 O36           -3.6811     3.6165     3.4017 O.3     
  37 C37            2.6773     7.8424     1.1090 C.3     
  38 H38            0.9613    18.0753    -6.4756 H       
  39 H39            3.5825    15.1711    -4.7793 H       
  40 H40           -0.6036    14.3567    -5.0951 H       
  41 H41            2.5337    12.8766    -4.4628 H       
  42 H42           -1.3795    10.2728    -3.7271 H       
  43 H43           -3.3179     9.6858    -2.3281 H       
  44 H44           -1.3004    11.2376     1.1051 H       
  45 H45            0.6340    11.8212    -0.3007 H       
  46 H46           -1.5246    16.3827    -7.2725 H       
  47 H47           -2.0782    16.2174    -5.5889 H       
  48 H48           -1.4250    17.7707    -6.1626 H       
  49 H49            3.6854    18.2745    -4.9855 H       
  50 H50            4.4596    17.0572    -6.0281 H       
  51 H51            3.3652    18.2691    -6.7364 H       
  52 H52           -2.6381     7.9076     1.1860 H       
  53 H53            1.0028    10.7319    -3.7862 H       
  54 H54            1.8414    11.3821    -2.3570 H       
  55 H55           -0.7552     7.8032     3.4043 H       
  56 H56           -1.3368     5.8558     1.1278 H       
  57 H57           -0.2554     5.5228     2.5018 H       
  58 H58           -2.2173    12.0320     2.4145 H       
  59 H59           -3.1069    12.3995     0.9097 H       
  60 H60           -3.9984    13.1531     3.4224 H       
  61 H61           -5.1018    12.8328     2.0477 H       
  62 H62           -4.2744    10.9262     4.3052 H       
  63 H63           -5.9252    11.2880     3.7013 H       
  64 H64           -5.5561    10.0864     1.6463 H       
  65 H65           -4.6754     9.0646     2.8254 H       
  66 H66           -2.1096     5.7946     4.0788 H       
  67 H67           -3.2033     6.2674     2.7565 H       
  68 H68           -3.8444     2.6843     3.2034 H       
  69 H69            2.5082     7.6187     0.0557 H       
  70 H70            2.8198     8.9157     1.2341 H       
  71 H71            3.5667     7.3151     1.4542 H       
@<TRIPOS>BOND
   1    1    2 ar
   2    1   19 1
   3    1    6 ar
   4    2    3 ar
   5    2   38 1
   6    3    4 ar
   7    3   20 1
   8    4    5 ar
   9    4   39 1
  10    5    6 ar
  11    5    7 1
  12    6   40 1
  13    7    8 am
  14    7   41 1
  15    8    9 2
  16    8   23 1
  17   10   11 ar
  18   10   15 ar
  19   10   23 1
  20   11   12 ar
  21   11   42 1
  22   12   13 ar
  23   12   43 1
  24   13   14 ar
  25   13   16 1
  26   14   15 ar
  27   14   44 1
  28   15   45 1
  29   16   17 1
  30   17   18 1
  31   17   29 1
  32   17   32 1
  33   18   21 2
  34   18   22 am
  35   19   46 1
  36   19   47 1
  37   19   48 1
  38   20   49 1
  39   20   50 1
  40   20   51 1
  41   22   24 1
  42   22   52 1
  43   23   53 1
  44   23   54 1
  45   24   25 1
  46   24   28 1
  47   24   55 1
  48   25   26 2
  49   25   27 1
  50   27   37 1
  51   28   33 1
  52   28   56 1
  53   28   57 1
  54   29   30 1
  55   29   58 1
  56   29   59 1
  57   30   31 1
  58   30   60 1
  59   30   61 1
  60   31   32 1
  61   31   62 1
  62   31   63 1
  63   32   64 1
  64   32   65 1
  65   33   34 1
  66   33   66 1
  67   33   67 1
  68   34   35 2
  69   34   36 1
  70   36   68 1
  71   37   69 1
  72   37   70 1
  73   37   71 1

#	End of record

