#	Name: ASD02198122
#	Creating user name:	WinNT
#	Creation time:	15. 06. 2019 20:18

#	Modifying user name:	WinNT
#	Modification time:	15. 06. 2019 20:18

#	Program:	/corina/corina34_cracker 3.40 0067  02.08.2006

@<TRIPOS>MOLECULE
ASD02198122
  47   48    0    0    0
SMALL
NO_CHARGES


@<TRIPOS>ATOM
   1 C1            -0.2689     1.4772    -0.4723 C.2     
   2 C2            -0.3881     0.1179    -0.2721 C.2     
   3 C3            -1.6053    -0.6010    -0.5009 C.1     
   4 S4             1.3091     2.0097    -0.1073 S.3     
   5 C5             1.8278     0.3878     0.3229 C.2     
   6 C6             0.7824    -0.4929     0.1722 C.2     
   7 C7             3.1211     0.0410     0.7567 C.2     
   8 C8             4.1219     1.0992     1.0199 C.ar    
   9 O9             3.4169    -1.1312     0.9157 O.2     
  10 N10            0.8830    -1.8498     0.4361 N.pl3   
  11 N11           -1.2847     2.2925    -0.9126 N.pl3   
  12 N12           -2.5709    -1.1713    -0.6823 N.1     
  13 C13            3.7165     2.3396     1.5136 C.ar    
  14 C14           -1.0473     3.7271    -1.0910 C.3     
  15 C15           -2.0323     4.2828    -2.1216 C.3     
  16 C16            4.6540     3.3224     1.7571 C.ar    
  17 C17            5.9937     3.0806     1.5125 C.ar    
  18 C18            6.4032     1.8519     1.0220 C.ar    
  19 C19            5.4754     0.8583     0.7807 C.ar    
  20 C20           -1.7863     3.6129    -3.4750 C.3     
  21 C21           -2.8663     4.0526    -4.4655 C.3     
  22 O22           -1.5499     3.8075     1.2096 O.2     
  23 C23           -1.2433     4.4361     0.2243 C.2     
  24 Cl24           8.0867     1.5581     0.7170 Cl      
  25 O25           -1.0774     5.7659     0.3012 O.3     
  26 C26           -1.2826     6.3817     1.6000 C.3     
  27 C27           -0.4109     4.0233    -4.0047 C.3     
  28 H28            1.7237    -2.2229     0.7442 H       
  29 H29            0.1128    -2.4263     0.3126 H       
  30 H30           -2.1585     1.9179    -1.1052 H       
  31 H31            2.6708     2.5302     1.7045 H       
  32 H32           -0.0273     3.8859    -1.4409 H       
  33 H33           -3.0524     4.0796    -1.7957 H       
  34 H34           -1.8891     5.3590    -2.2176 H       
  35 H35            4.3409     4.2828     2.1393 H       
  36 H36            6.7234     3.8534     1.7044 H       
  37 H37            5.7954    -0.0997     0.3982 H       
  38 H38           -1.8215     2.5299    -3.3561 H       
  39 H39           -2.7412     3.5115    -5.4034 H       
  40 H40           -3.8504     3.8363    -4.0497 H       
  41 H41           -2.7767     5.1233    -4.6490 H       
  42 H42           -1.1173     7.4563     1.5228 H       
  43 H43           -2.3030     6.1941     1.9340 H       
  44 H44           -0.5813     5.9570     2.3183 H       
  45 H45            0.3586     3.7100    -3.2991 H       
  46 H46           -0.2356     3.5460    -4.9689 H       
  47 H47           -0.3756     5.1062    -4.1236 H       
@<TRIPOS>BOND
   1    1    2 2
   2    1    4 1
   3    1   11 1
   4    2    3 1
   5    2    6 1
   6    3   12 3
   7    4    5 1
   8    5    6 2
   9    5    7 1
  10    6   10 1
  11    7    8 1
  12    7    9 2
  13    8   13 ar
  14    8   19 ar
  15   10   28 1
  16   10   29 1
  17   11   14 1
  18   11   30 1
  19   13   16 ar
  20   13   31 1
  21   14   15 1
  22   14   23 1
  23   14   32 1
  24   15   20 1
  25   15   33 1
  26   15   34 1
  27   16   17 ar
  28   16   35 1
  29   17   18 ar
  30   17   36 1
  31   18   19 ar
  32   18   24 1
  33   19   37 1
  34   20   21 1
  35   20   27 1
  36   20   38 1
  37   21   39 1
  38   21   40 1
  39   21   41 1
  40   22   23 2
  41   23   25 1
  42   25   26 1
  43   26   42 1
  44   26   43 1
  45   26   44 1
  46   27   45 1
  47   27   46 1
  48   27   47 1

#	End of record

