#	Name: ASD08150115
#	Creating user name:	WinNT
#	Creation time:	15. 06. 2019 21:15

#	Modifying user name:	WinNT
#	Modification time:	15. 06. 2019 21:15

#	Program:	/corina/corina34_cracker 3.40 0067  02.08.2006

@<TRIPOS>MOLECULE
ASD08150115
  55   58    0    0    0
SMALL
NO_CHARGES


@<TRIPOS>ATOM
   1 O1             0.2900     1.8896    -1.9306 O.3     
   2 C2             0.2249     0.6582    -1.4122 C.2     
   3 N3             1.3954     0.0057    -1.4166 N.am    
   4 C4             2.4228     0.8752    -2.0100 C.3     
   5 C5             1.6551     2.1648    -2.3593 C.3     
   6 O6            -0.8015     0.1756    -0.9768 O.2     
   7 C7             3.0396    -3.0241    -0.4480 C.ar    
   8 N8             2.0475    -3.7860    -0.0151 N.ar    
   9 C9             0.7916    -3.3391    -0.0213 C.ar    
  10 C10            0.5332    -2.0522    -0.4918 C.ar    
  11 C11            1.6046    -1.2832    -0.9382 C.ar    
  12 N12            2.8302    -1.7973    -0.9015 N.ar    
  13 C13           -2.3144    -5.7520     1.3439 C.ar    
  14 N14           -1.4564    -6.2443     0.4614 N.ar    
  15 C15           -0.4580    -5.5101     0.0043 C.ar    
  16 C16           -0.3144    -4.1980     0.4645 C.ar    
  17 C17           -1.2403    -3.7166     1.3950 C.ar    
  18 N18           -2.2114    -4.5127     1.8039 N.ar    
  19 N19            4.3312    -3.5206    -0.4207 N.3     
  20 C20            4.4970    -4.6113    -1.3925 C.3     
  21 C21            5.9512    -5.0896    -1.3715 C.3     
  22 O22            6.2967    -5.4909    -0.0430 O.3     
  23 C23            6.1475    -4.4527     0.9292 C.3     
  24 C24            4.6953    -3.9680     0.9316 C.3     
  25 N25           -3.3488    -6.5512     1.7928 N.pl3   
  26 C26            0.5126    -6.0790    -0.9984 C.3     
  27 F27            0.0288    -7.3029    -1.4731 F       
  28 F28            0.6548    -5.1877    -2.0673 F       
  29 F29            1.7550    -6.2746    -0.3858 F       
  30 C30            4.1457    -4.1054    -2.7930 C.3     
  31 C31            3.5307     1.1672    -0.9960 C.3     
  32 O32            4.2387    -0.0391    -0.7033 O.3     
  33 C33            1.7019     2.4253    -3.8662 C.3     
  34 H34            2.8363     0.4201    -2.9099 H       
  35 H35            2.0641     3.0134    -1.8109 H       
  36 H36           -0.4735    -1.6616    -0.5099 H       
  37 H37           -1.1622    -2.7084     1.7742 H       
  38 H38            3.8381    -5.4381    -1.1275 H       
  39 H39            6.0658    -5.9359    -2.0488 H       
  40 H40            6.6060    -4.2778    -1.6883 H       
  41 H41            6.4040    -4.8385     1.9159 H       
  42 H42            6.8079    -3.6224     0.6793 H       
  43 H43            4.5897    -3.1380     1.6302 H       
  44 H44            4.0395    -4.7846     1.2337 H       
  45 H45           -3.4392    -7.4586     1.4622 H       
  46 H46           -3.9843    -6.2046     2.4384 H       
  47 H47            4.7374    -3.2180    -3.0178 H       
  48 H48            4.3639    -4.8827    -3.5254 H       
  49 H49            3.0856    -3.8552    -2.8337 H       
  50 H50            4.2204     1.9013    -1.4127 H       
  51 H51            3.0904     1.5614    -0.0801 H       
  52 H52            4.9573     0.0714    -0.0658 H       
  53 H53            1.0963     3.3003    -4.1026 H       
  54 H54            2.7327     2.6034    -4.1723 H       
  55 H55            1.3099     1.5579    -4.3972 H       
@<TRIPOS>BOND
   1    1    2 1
   2    1    5 1
   3    2    3 am
   4    2    6 2
   5    3    4 1
   6    3   11 1
   7    4    5 1
   8    4   31 1
   9    4   34 1
  10    5   33 1
  11    5   35 1
  12    7    8 ar
  13    7   12 ar
  14    7   19 1
  15    8    9 ar
  16    9   10 ar
  17    9   16 1
  18   10   11 ar
  19   10   36 1
  20   11   12 ar
  21   13   14 ar
  22   13   18 ar
  23   13   25 1
  24   14   15 ar
  25   15   16 ar
  26   15   26 1
  27   16   17 ar
  28   17   18 ar
  29   17   37 1
  30   19   20 1
  31   19   24 1
  32   20   21 1
  33   20   30 1
  34   20   38 1
  35   21   22 1
  36   21   39 1
  37   21   40 1
  38   22   23 1
  39   23   24 1
  40   23   41 1
  41   23   42 1
  42   24   43 1
  43   24   44 1
  44   25   45 1
  45   25   46 1
  46   26   27 1
  47   26   28 1
  48   26   29 1
  49   30   47 1
  50   30   48 1
  51   30   49 1
  52   31   32 1
  53   31   50 1
  54   31   51 1
  55   32   52 1
  56   33   53 1
  57   33   54 1
  58   33   55 1

#	End of record

