#	Name: ASD00431483
#	Creating user name:	WinNT
#	Creation time:	15. 06. 2019 18:35

#	Modifying user name:	WinNT
#	Modification time:	15. 06. 2019 18:35

#	Program:	/corina/corina34_cracker 3.40 0067  02.08.2006

@<TRIPOS>MOLECULE
ASD00431483
  30   30    0    0    0
SMALL
NO_CHARGES


@<TRIPOS>ATOM
   1 C1            -0.0465     1.3271    -0.2030 C.2     
   2 N2             0.0021    -0.0041     0.0020 N.am    
   3 O3             0.9775     1.9479    -0.4091 O.2     
   4 O4            -1.2305     1.9683    -0.1848 O.3     
   5 C5             1.2195    -0.6877    -0.1191 C.ar    
   6 C6             2.4014    -0.0773     0.2793 C.ar    
   7 C7             3.6011    -0.7521     0.1600 C.ar    
   8 C8             3.6245    -2.0401    -0.3580 C.ar    
   9 C9             2.4442    -2.6494    -0.7557 C.ar    
  10 C10            1.2435    -1.9773    -0.6319 C.ar    
  11 O11            4.8055    -2.7041    -0.4758 O.3     
  12 Cl12           5.0792     0.0105     0.6572 Cl      
  13 C13           -1.2072     3.4021    -0.4131 C.3     
  14 C14           -0.6052     3.6895    -1.7900 C.3     
  15 C15           -2.6343     3.9508    -0.3559 C.3     
  16 C16           -0.3577     4.0767     0.6658 C.3     
  17 H17           -0.8055    -0.4890     0.2333 H       
  18 H18            2.3829     0.9247     0.6818 H       
  19 H19            2.4630    -3.6512    -1.1585 H       
  20 H20            0.3240    -2.4539    -0.9380 H       
  21 H21            5.0432    -3.2251     0.3034 H       
  22 H22           -1.2104     3.2089    -2.5587 H       
  23 H23           -0.5877     4.7658    -1.9615 H       
  24 H24            0.4115     3.2985    -1.8308 H       
  25 H25           -3.0632     3.7461     0.6250 H       
  26 H26           -2.6168     5.0271    -0.5273 H       
  27 H27           -3.2395     3.4702    -1.1246 H       
  28 H28            0.6589     3.6857     0.6250 H       
  29 H29           -0.3403     5.1530     0.4944 H       
  30 H30           -0.7867     3.8719     1.6468 H       
@<TRIPOS>BOND
   1    1    2 am
   2    1    3 2
   3    1    4 1
   4    2    5 1
   5    2   17 1
   6    4   13 1
   7    5    6 ar
   8    5   10 ar
   9    6    7 ar
  10    6   18 1
  11    7    8 ar
  12    7   12 1
  13    8    9 ar
  14    8   11 1
  15    9   10 ar
  16    9   19 1
  17   10   20 1
  18   11   21 1
  19   13   14 1
  20   13   16 1
  21   13   15 1
  22   14   22 1
  23   14   23 1
  24   14   24 1
  25   15   25 1
  26   15   26 1
  27   15   27 1
  28   16   28 1
  29   16   29 1
  30   16   30 1

#	End of record

