#	Name: ASD00069233
#	Creating user name:	WinNT
#	Creation time:	15. 06. 2019 18:29

#	Modifying user name:	WinNT
#	Modification time:	15. 06. 2019 18:29

#	Program:	/corina/corina34_cracker 3.40 0067  02.08.2006

@<TRIPOS>MOLECULE
ASD00069233
  40   40    0    0    0
SMALL
NO_CHARGES


@<TRIPOS>ATOM
   1 C1            -0.0158     1.3124     0.0093 C.2     
   2 N2             0.0021    -0.0041     0.0020 N.2     
   3 C3             1.2651    -0.4221    -0.0123 C.2     
   4 C4             2.0750     0.6657    -0.0142 C.2     
   5 N5             1.2765     1.7585    -0.0007 N.pl3   
   6 C6            -1.2207     2.1590     0.0198 C.2     
   7 O7            -1.1129     3.3694     0.0254 O.2     
   8 O8            -2.4434     1.5912     0.0233 O.3     
   9 C9             1.7146     3.1564     0.0022 C.3     
  10 O10            3.1426     3.2081    -0.0110 O.3     
  11 C11            3.6763     4.5337    -0.0094 C.3     
  12 C12            5.2048     4.4681    -0.0241 C.3     
  13 Si13           5.9006     6.1963    -0.0220 Si      
  14 C14            5.3322     7.0927     1.5091 C.3     
  15 C15            7.7618     6.1165    -0.0399 C.3     
  16 C16            5.3035     7.1080    -1.5330 C.3     
  17 C17           -3.5861     2.4869     0.0338 C.3     
  18 C18           -4.8774     1.6663     0.0364 C.3     
  19 H19            1.5899    -1.4520    -0.0209 H       
  20 H20            3.1550     0.6609    -0.0242 H       
  21 H21            1.3246     3.6613    -0.8816 H       
  22 H22            1.3414     3.6523     0.8983 H       
  23 H23            3.3270     5.0671    -0.8934 H       
  24 H24            3.3438     5.0581     0.8864 H       
  25 H25            5.5542     3.9347     0.8599 H       
  26 H26            5.5374     3.9437    -0.9199 H       
  27 H27            5.6816     6.5593     2.3932 H       
  28 H28            5.7393     8.1038     1.5103 H       
  29 H29            4.2433     7.1394     1.5196 H       
  30 H30            8.0944     5.5920    -0.9357 H       
  31 H31            8.1689     7.1276    -0.0387 H       
  32 H32            8.1111     5.5831     0.8441 H       
  33 H33            4.2146     7.1547    -1.5225 H       
  34 H34            5.7106     8.1191    -1.5317 H       
  35 H35            5.6361     6.5835    -2.4288 H       
  36 H36           -3.5504     3.1109     0.9268 H       
  37 H37           -3.5597     3.1200    -0.8531 H       
  38 H38           -4.9131     1.0422    -0.8566 H       
  39 H39           -4.9038     1.0332     0.9233 H       
  40 H40           -5.7352     2.3387     0.0442 H       
@<TRIPOS>BOND
   1    1    2 2
   2    1    5 1
   3    1    6 1
   4    2    3 1
   5    3    4 2
   6    3   19 1
   7    4    5 1
   8    4   20 1
   9    5    9 1
  10    6    7 2
  11    6    8 1
  12    8   17 1
  13    9   10 1
  14    9   21 1
  15    9   22 1
  16   10   11 1
  17   11   12 1
  18   11   23 1
  19   11   24 1
  20   12   13 1
  21   12   25 1
  22   12   26 1
  23   13   14 1
  24   13   15 1
  25   13   16 1
  26   14   27 1
  27   14   28 1
  28   14   29 1
  29   15   30 1
  30   15   31 1
  31   15   32 1
  32   16   33 1
  33   16   34 1
  34   16   35 1
  35   17   18 1
  36   17   36 1
  37   17   37 1
  38   18   38 1
  39   18   39 1
  40   18   40 1

#	End of record

