#	Name: ASD08150343
#	Creating user name:	WinNT
#	Creation time:	15. 06. 2019 21:15

#	Modifying user name:	WinNT
#	Modification time:	15. 06. 2019 21:15

#	Program:	/corina/corina34_cracker 3.40 0067  02.08.2006

@<TRIPOS>MOLECULE
ASD08150343
  76   82    0    0    0
SMALL
NO_CHARGES


@<TRIPOS>ATOM
   1 N1             0.0604     1.2996     2.2278 N.am    
   2 C2             0.0796    -0.0314     2.4215 C.2     
   3 N3             1.2177    -0.7432     2.4516 N.am    
   4 C4             2.4195    -0.1479     2.2864 C.2     
   5 C5             2.4504     1.3068     2.0712 C.ar    
   6 C6             3.6485     2.0088     1.8902 C.ar    
   7 N7             3.6500     3.3053     1.7001 N.ar    
   8 C8             2.5195     4.0257     1.6679 C.ar    
   9 C9             1.2620     3.3936     1.8421 C.ar    
  10 C10            1.2306     1.9982     2.0490 C.ar    
  11 C11            0.0894     4.1554     1.8071 C.ar    
  12 C12            0.1699     5.5228     1.6021 C.ar    
  13 C13            1.4171     6.1407     1.4306 C.ar    
  14 C14            2.5660     5.4147     1.4619 C.ar    
  15 O15           -0.9765    -0.6135     2.5761 O.2     
  16 C16           -1.0689     6.3373     1.5632 C.ar    
  17 C17           -1.1654     1.9800     2.2021 C.ar    
  18 C18           -1.9288     1.9917     1.0420 C.ar    
  19 C19           -3.1354     2.6613     1.0164 C.ar    
  20 C20           -3.5865     3.3233     2.1515 C.ar    
  21 C21           -2.8231     3.3111     3.3116 C.ar    
  22 C22           -1.6184     2.6370     3.3381 C.ar    
  23 N23           -4.8088     4.0023     2.1257 N.3     
  24 C24           -2.2378     5.8195     0.9827 C.ar    
  25 C25           -5.8741     3.1916     2.7305 C.3     
  26 C26           -7.1486     4.0343     2.8476 C.3     
  27 N27           -7.4653     4.5891     1.5228 N.am    
  28 C28           -6.4032     5.2983     0.7933 C.3     
  29 C29           -5.1580     4.4059     0.7571 C.3     
  30 C30           -8.6960     4.4508     0.9911 C.2     
  31 O31           -9.5598     3.8625     1.6064 O.2     
  32 C32           -8.9988     5.0271    -0.3680 C.3     
  33 N33           -3.3451     6.5157     0.9344 N.ar    
  34 C34           -3.4188     7.7534     1.4353 C.ar    
  35 C35           -2.2809     8.3461     2.0385 C.ar    
  36 C36           -1.0828     7.6144     2.1053 C.ar    
  37 C37          -10.4549     4.7327    -0.7340 C.3     
  38 C38           -4.6171     8.4859     1.3736 C.ar    
  39 C39           -4.6681     9.7441     1.8898 C.ar    
  40 C40           -3.5484    10.3248     2.4823 C.ar    
  41 C41           -2.3701     9.6477     2.5607 C.ar    
  42 O42            3.4476    -0.7972     2.3152 O.2     
  43 C43            1.1555    -2.1908     2.6677 C.3     
  44 C44           -3.3119     4.0295     4.5429 C.3     
  45 F45           -2.3186     3.9959     5.5275 F       
  46 F46           -3.6051     5.3592     4.2215 F       
  47 F47           -4.4656     3.4004     5.0227 F       
  48 H48            4.5862     1.4732     1.9078 H       
  49 H49           -0.8717     3.6807     1.9387 H       
  50 H50            1.4654     7.2078     1.2711 H       
  51 H51            3.5177     5.9074     1.3283 H       
  52 H52           -1.5781     1.4770     0.1596 H       
  53 H53           -3.7287     2.6710     0.1140 H       
  54 H54           -1.0267     2.6241     4.2415 H       
  55 H55           -2.2227     4.8234     0.5659 H       
  56 H56           -6.0696     2.3217     2.1035 H       
  57 H57           -5.5628     2.8632     3.7221 H       
  58 H58           -7.9723     3.4070     3.1883 H       
  59 H59           -6.9864     4.8471     3.5556 H       
  60 H60           -6.7341     5.5067    -0.2241 H       
  61 H61           -6.1694     6.2325     1.3039 H       
  62 H62           -4.3274     4.9581     0.3175 H       
  63 H63           -5.3635     3.5190     0.1576 H       
  64 H64           -8.8398     6.1053    -0.3491 H       
  65 H65           -8.3395     4.5755    -1.1093 H       
  66 H66           -0.1977     8.0363     2.5580 H       
  67 H67          -11.1143     5.1843     0.0073 H       
  68 H68          -10.6739     5.1495    -1.7170 H       
  69 H69          -10.6140     3.6545    -0.7529 H       
  70 H70           -5.4945     8.0515     0.9176 H       
  71 H71           -5.5915    10.3019     1.8390 H       
  72 H72           -3.6162    11.3251     2.8838 H       
  73 H73           -1.5089    10.1079     3.0222 H       
  74 H74            1.0738    -2.6985     1.7067 H       
  75 H75            2.0605    -2.5212     3.1775 H       
  76 H76            0.2858    -2.4297     3.2799 H       
@<TRIPOS>BOND
   1    1    2 am
   2    1   10 1
   3    1   17 1
   4    2    3 am
   5    2   15 2
   6    3    4 am
   7    3   43 1
   8    4    5 1
   9    4   42 2
  10    5    6 ar
  11    5   10 ar
  12    6    7 ar
  13    6   48 1
  14    7    8 ar
  15    8    9 ar
  16    8   14 ar
  17    9   10 ar
  18    9   11 ar
  19   11   12 ar
  20   11   49 1
  21   12   13 ar
  22   12   16 1
  23   13   14 ar
  24   13   50 1
  25   14   51 1
  26   16   24 ar
  27   16   36 ar
  28   17   18 ar
  29   17   22 ar
  30   18   19 ar
  31   18   52 1
  32   19   20 ar
  33   19   53 1
  34   20   21 ar
  35   20   23 1
  36   21   22 ar
  37   21   44 1
  38   22   54 1
  39   23   25 1
  40   23   29 1
  41   24   33 ar
  42   24   55 1
  43   25   26 1
  44   25   56 1
  45   25   57 1
  46   26   27 1
  47   26   58 1
  48   26   59 1
  49   27   28 1
  50   27   30 am
  51   28   29 1
  52   28   60 1
  53   28   61 1
  54   29   62 1
  55   29   63 1
  56   30   31 2
  57   30   32 1
  58   32   37 1
  59   32   64 1
  60   32   65 1
  61   33   34 ar
  62   34   35 ar
  63   34   38 ar
  64   35   36 ar
  65   35   41 ar
  66   36   66 1
  67   37   67 1
  68   37   68 1
  69   37   69 1
  70   38   39 ar
  71   38   70 1
  72   39   40 ar
  73   39   71 1
  74   40   41 ar
  75   40   72 1
  76   41   73 1
  77   43   74 1
  78   43   75 1
  79   43   76 1
  80   44   45 1
  81   44   46 1
  82   44   47 1

#	End of record

