#	Name: ASD00360014
#	Creating user name:	WinNT
#	Creation time:	15. 06. 2019 18:35

#	Modifying user name:	WinNT
#	Modification time:	15. 06. 2019 18:35

#	Program:	/corina/corina34_cracker 3.40 0067  02.08.2006

@<TRIPOS>MOLECULE
ASD00360014
  44   47    0    0    0
SMALL
NO_CHARGES


@<TRIPOS>ATOM
   1 C1            -0.0169     1.3978     0.0097 C.ar    
   2 C2             0.0021    -0.0041     0.0020 C.ar    
   3 C3             1.2205    -0.6878    -0.0134 C.ar    
   4 C4             2.4188     0.0144    -0.0208 C.ar    
   5 C5             2.4123     1.4048    -0.0125 C.ar    
   6 C6             1.1871     2.1047     0.0020 C.ar    
   7 C7             1.1880     3.5785     0.0104 C.2     
   8 C8             3.6831     2.1585    -0.0172 C.2     
   9 C9             3.6656     3.6029     0.2998 C.ar    
  10 C10            2.4409     4.2981     0.3111 C.ar    
  11 C11            2.4238     5.6620     0.6098 C.ar    
  12 C12            4.8457     4.2791     0.5847 C.ar    
  13 C13            4.8137     5.6331     0.8798 C.ar    
  14 C14            3.6182     6.3204     0.8912 C.ar    
  15 O15            1.2332    -2.0449    -0.0207 O.3     
  16 O16            4.7299     1.5983    -0.2780 O.2     
  17 O17            0.1670     4.1952    -0.2284 O.2     
  18 O18            1.2506     6.3419     0.6253 O.3     
  19 O19           -1.1976     2.0631     0.0189 O.3     
  20 C20            6.0968     6.3607     1.1886 C.3     
  21 C21           -1.2707    -0.7610     0.0107 C.ar    
  22 C22           -2.8075    -2.2545    -1.0728 C.ar    
  23 C23           -3.6519    -2.1773     0.0271 C.ar    
  24 C24           -3.3082    -1.3873     1.1163 C.ar    
  25 C25           -2.1242    -0.6812     1.1117 C.ar    
  26 C26           -1.6219    -1.5512    -1.0844 C.ar    
  27 O27           -4.8195    -2.8717     0.0351 O.3     
  28 C28           -5.6405    -2.7471     1.1980 C.3     
  29 H29            3.3570    -0.5204    -0.0327 H       
  30 H30            5.7871     3.7499     0.5766 H       
  31 H31            3.6081     7.3753     1.1225 H       
  32 H32            1.2283    -2.4335    -0.9062 H       
  33 H33            0.8122     6.3501     1.4872 H       
  34 H34           -1.5360     2.2514     0.9050 H       
  35 H35            6.5213     6.7562     0.2658 H       
  36 H36            5.8926     7.1818     1.8757 H       
  37 H37            6.8046     5.6704     1.6475 H       
  38 H38           -3.0778    -2.8698    -1.9182 H       
  39 H39           -3.9672    -1.3295     1.9700 H       
  40 H40           -1.8574    -0.0674     1.9592 H       
  41 H41           -0.9659    -1.6114    -1.9402 H       
  42 H42           -6.5397    -3.3506     1.0744 H       
  43 H43           -5.0880    -3.0930     2.0716 H       
  44 H44           -5.9201    -1.7025     1.3351 H       
@<TRIPOS>BOND
   1    1    2 ar
   2    1    6 ar
   3    1   19 1
   4    2    3 ar
   5    2   21 1
   6    3    4 ar
   7    3   15 1
   8    4    5 ar
   9    4   29 1
  10    5    6 ar
  11    5    8 1
  12    6    7 1
  13    7   10 1
  14    7   17 2
  15    8    9 1
  16    8   16 2
  17    9   12 ar
  18    9   10 ar
  19   10   11 ar
  20   11   14 ar
  21   11   18 1
  22   12   13 ar
  23   12   30 1
  24   13   14 ar
  25   13   20 1
  26   14   31 1
  27   15   32 1
  28   18   33 1
  29   19   34 1
  30   20   35 1
  31   20   36 1
  32   20   37 1
  33   21   26 ar
  34   21   25 ar
  35   22   23 ar
  36   22   26 ar
  37   22   38 1
  38   23   24 ar
  39   23   27 1
  40   24   25 ar
  41   24   39 1
  42   25   40 1
  43   26   41 1
  44   27   28 1
  45   28   42 1
  46   28   43 1
  47   28   44 1

#	End of record

