#	Name: ASD07300512
#	Creating user name:	WinNT
#	Creation time:	15. 06. 2019 21:09

#	Modifying user name:	WinNT
#	Modification time:	15. 06. 2019 21:09

#	Program:	/corina/corina34_cracker 3.40 0067  02.08.2006

@<TRIPOS>MOLECULE
ASD07300512
  43   47    0    0    0
SMALL
NO_CHARGES


@<TRIPOS>ATOM
   1 C1            -0.0191     1.2724     0.0624 C.2     
   2 N2            -0.0094    -0.0445     0.0502 N.2     
   3 C3             1.2711    -0.4975     0.0449 C.ar    
   4 C4             2.1095     0.6271     0.0545 C.ar    
   5 N5             1.2673     1.7384     0.0655 N.am    
   6 C6             1.8363    -1.7749     0.0330 C.ar    
   7 C7             3.2069    -1.9161     0.0308 C.ar    
   8 C8             4.0294    -0.8004     0.0404 C.ar    
   9 C9             3.4847     0.4689     0.0522 C.ar    
  10 N10           -0.9235     2.3199     0.0779 N.pl3   
  11 C11           -0.1337     3.5596     0.0842 C.3     
  12 C12            1.3029     3.0880     0.0780 C.2     
  13 O13            2.2939     3.7859     0.0839 O.2     
  14 C14           -2.3201     2.2184     0.0855 C.ar    
  15 C15           -3.0998     3.3677     0.1012 C.ar    
  16 C16           -4.4767     3.2677     0.1083 C.ar    
  17 C17           -5.0823     2.0177     0.0998 C.ar    
  18 C18           -4.3025     0.8684     0.0841 C.ar    
  19 C19           -2.9256     0.9685     0.0717 C.ar    
  20 N20           -6.4782     1.9163     0.1074 N.pl3   
  21 C21           -7.1051     0.8804    -0.5815 C.ar    
  22 C22           -8.4884     0.7129    -0.4730 C.ar    
  23 C23           -9.0966    -0.3245    -1.1669 C.ar    
  24 C24           -8.3009    -1.1566    -1.9436 C.ar    
  25 C25           -6.9410    -0.9308    -2.0031 C.ar    
  26 N26           -6.3874     0.0663    -1.3374 N.ar    
  27 N27           -9.2488     1.5773     0.3231 N.pl3   
  28 H28            1.2014    -2.6485     0.0259 H       
  29 H29            3.6438    -2.9037     0.0220 H       
  30 H30            5.1022    -0.9243     0.0386 H       
  31 H31            4.1297     1.3351     0.0593 H       
  32 H32           -0.3485     4.1527    -0.8047 H       
  33 H33           -0.3370     4.1363     0.9865 H       
  34 H34           -2.6289     4.3396     0.1081 H       
  35 H35           -5.0829     4.1614     0.1208 H       
  36 H36           -4.7733    -0.1036     0.0778 H       
  37 H37           -2.3193     0.0750     0.0554 H       
  38 H38           -7.0091     2.5673     0.5924 H       
  39 H39          -10.1633    -0.4810    -1.1038 H       
  40 H40           -8.7425    -1.9731    -2.4956 H       
  41 H41           -6.3205    -1.5770    -2.6063 H       
  42 H42           -8.8161     2.2995     0.8049 H       
  43 H43          -10.2084     1.4542     0.3930 H       
@<TRIPOS>BOND
   1    1    2 2
   2    1    5 1
   3    1   10 1
   4    2    3 1
   5    3    4 ar
   6    3    6 ar
   7    4    5 1
   8    4    9 ar
   9    5   12 am
  10    6    7 ar
  11    6   28 1
  12    7    8 ar
  13    7   29 1
  14    8    9 ar
  15    8   30 1
  16    9   31 1
  17   10   11 1
  18   10   14 1
  19   11   12 1
  20   11   32 1
  21   11   33 1
  22   12   13 2
  23   14   15 ar
  24   14   19 ar
  25   15   16 ar
  26   15   34 1
  27   16   17 ar
  28   16   35 1
  29   17   18 ar
  30   17   20 1
  31   18   19 ar
  32   18   36 1
  33   19   37 1
  34   20   21 1
  35   20   38 1
  36   21   22 ar
  37   21   26 ar
  38   22   23 ar
  39   22   27 1
  40   23   24 ar
  41   23   39 1
  42   24   25 ar
  43   24   40 1
  44   25   26 ar
  45   25   41 1
  46   27   42 1
  47   27   43 1

#	End of record

