#	Name: ASD03092640
#	Creating user name:	WinNT
#	Creation time:	15. 06. 2019 20:32

#	Modifying user name:	WinNT
#	Modification time:	15. 06. 2019 20:32

#	Program:	/corina/corina34_cracker 3.40 0067  02.08.2006

@<TRIPOS>MOLECULE
ASD03092640
  50   53    0    0    0
SMALL
NO_CHARGES


@<TRIPOS>ATOM
   1 C1             1.0915     1.6357    -0.8827 C.ar    
   2 C2             1.0108     0.2397    -1.0603 C.ar    
   3 C3             1.7579    -0.6023    -0.2073 C.ar    
   4 C4             2.5431    -0.0014     0.7749 C.ar    
   5 C5             2.5626     1.3809     0.8780 C.ar    
   6 N6             1.8576     2.1434     0.0711 N.ar    
   7 N7            -0.3019     1.1558    -2.5780 N.2     
   8 N8             0.2704     2.1936    -1.8328 N.pl3   
   9 C9             0.1286     0.0077    -2.1377 C.2     
  10 C10            1.7081    -2.0727    -0.3512 C.2     
  11 O11            0.6664    -2.6185    -0.6590 O.2     
  12 N12            2.8178    -2.8083    -0.1412 N.am    
  13 C13            3.6122    -4.9139    -1.0314 C.ar    
  14 C14            2.7534    -4.2040    -0.2018 C.ar    
  15 C15            1.8276    -4.9028     0.5690 C.ar    
  16 C16            1.8025    -6.2848     0.4750 C.ar    
  17 C17            2.6897    -6.9200    -0.3737 C.ar    
  18 N18            3.5549    -6.2292    -1.0904 N.ar    
  19 C19            0.8770    -4.1737     1.4833 C.3     
  20 C20            4.6155    -4.1723    -1.8766 C.3     
  21 C21            3.4131     2.0262     1.9416 C.3     
  22 C22           -0.2581    -1.3433    -2.6819 C.3     
  23 C23            0.0454     3.5594    -2.0219 C.ar    
  24 C24           -0.1495     4.0592    -3.3052 C.ar    
  25 C25           -0.3716     5.4049    -3.4955 C.ar    
  26 C26           -0.4014     6.2686    -2.3971 C.ar    
  27 C27           -0.2056     5.7628    -1.1091 C.ar    
  28 C28            0.0111     4.4152    -0.9260 C.ar    
  29 C29           -0.6316     7.6687    -2.5911 C.1     
  30 N30           -0.8141     8.7793    -2.7449 N.1     
  31 H31            3.1305    -0.6067     1.4494 H       
  32 H32            3.6611    -2.3696     0.0519 H       
  33 H33            1.0982    -6.8592     1.0583 H       
  34 H34            2.6743    -7.9972    -0.4507 H       
  35 H35           -0.0820    -4.0441     0.9816 H       
  36 H36            0.7344    -4.7527     2.3957 H       
  37 H37            1.2909    -3.1970     1.7337 H       
  38 H38            5.5701    -4.1282    -1.3525 H       
  39 H39            4.7458    -4.6920    -2.8258 H       
  40 H40            4.2561    -3.1602    -2.0629 H       
  41 H41            4.4089     2.2195     1.5427 H       
  42 H42            2.9568     2.9666     2.2508 H       
  43 H43            3.4889     1.3594     2.8004 H       
  44 H44           -1.0742    -1.7544    -2.0876 H       
  45 H45           -0.5799    -1.2392    -3.7181 H       
  46 H46            0.6000    -2.0137    -2.6336 H       
  47 H47           -0.1264     3.3911    -4.1535 H       
  48 H48           -0.5222     5.7923    -4.4923 H       
  49 H49           -0.2276     6.4273    -0.2580 H       
  50 H50            0.1588     4.0230     0.0694 H       
@<TRIPOS>BOND
   1    1    2 ar
   2    1    6 ar
   3    1    8 1
   4    2    3 ar
   5    2    9 1
   6    3    4 ar
   7    3   10 1
   8    4    5 ar
   9    4   31 1
  10    5    6 ar
  11    5   21 1
  12    7    8 1
  13    7    9 2
  14    8   23 1
  15    9   22 1
  16   10   11 2
  17   10   12 am
  18   12   14 1
  19   12   32 1
  20   13   14 ar
  21   13   18 ar
  22   13   20 1
  23   14   15 ar
  24   15   16 ar
  25   15   19 1
  26   16   17 ar
  27   16   33 1
  28   17   18 ar
  29   17   34 1
  30   19   35 1
  31   19   36 1
  32   19   37 1
  33   20   38 1
  34   20   39 1
  35   20   40 1
  36   21   41 1
  37   21   42 1
  38   21   43 1
  39   22   44 1
  40   22   45 1
  41   22   46 1
  42   23   24 ar
  43   23   28 ar
  44   24   25 ar
  45   24   47 1
  46   25   26 ar
  47   25   48 1
  48   26   27 ar
  49   26   29 1
  50   27   28 ar
  51   27   49 1
  52   28   50 1
  53   29   30 3

#	End of record

