#	Name: ASD01410974
#	Creating user name:	WinNT
#	Creation time:	15. 06. 2019 19:19

#	Modifying user name:	WinNT
#	Modification time:	15. 06. 2019 19:19

#	Program:	/corina/corina34_cracker 3.40 0067  02.08.2006

@<TRIPOS>MOLECULE
ASD01410974
  47   49    0    0    0
SMALL
NO_CHARGES


@<TRIPOS>ATOM
   1 C1            -0.0109     1.8100     0.0036 C.ar    
   2 P2             0.0289    -0.0034    -0.0173 P.3     
   3 N3             0.1858    -0.5645     1.5157 N.pl3   
   4 O4            -1.2285    -0.5177    -0.6046 O.2     
   5 C5             0.2397    -1.9352     1.7531 C.2     
   6 C6             0.3704    -2.4689     3.0146 C.2     
   7 S7             0.4006    -4.2238     2.9122 S.3     
   8 C8             0.2347    -4.1643     1.1632 C.2     
   9 C9             0.1608    -2.8697     0.7470 C.2     
  10 C10            0.4658    -1.7217     4.2084 C.2     
  11 O11            0.4345    -0.5052     4.1693 O.2     
  12 O12            0.5917    -2.3561     5.3936 O.3     
  13 C13            0.1787    -5.3448     0.2761 C.ar    
  14 C14            0.2588    -6.6304     0.8147 C.ar    
  15 C15            0.2056    -7.7284    -0.0177 C.ar    
  16 C16            0.0733    -7.5576    -1.3868 C.ar    
  17 C17           -0.0066    -6.2837    -1.9268 C.ar    
  18 C18            0.0398    -5.1787    -1.1031 C.ar    
  19 O19            1.2780    -0.5026    -0.9020 O.3     
  20 C20            1.4314    -0.1777    -2.2851 C.3     
  21 F21            0.0226    -8.6369    -2.1979 F       
  22 C22           -1.2225     2.4749    -0.0116 C.ar    
  23 C23           -1.2529     3.8570     0.0043 C.ar    
  24 C24           -0.0716     4.5739     0.0359 C.ar    
  25 C25            1.1404     3.9088     0.0521 C.ar    
  26 C26            1.1706     2.5270     0.0406 C.ar    
  27 C27            2.4916     1.8020     0.0635 C.3     
  28 C28           -0.1046     6.0804     0.0523 C.3     
  29 H29            0.2411     0.0586     2.2570 H       
  30 H30            0.0522    -2.5979    -0.2926 H       
  31 H31            0.6497    -1.7613     6.1539 H       
  32 H32            0.3626    -6.7645     1.8813 H       
  33 H33            0.2674    -8.7234     0.3979 H       
  34 H34           -0.1096    -6.1562    -2.9943 H       
  35 H35           -0.0271    -4.1866    -1.5245 H       
  36 H36            2.3494    -0.6267    -2.6641 H       
  37 H37            0.5799    -0.5634    -2.8456 H       
  38 H38            1.4820     0.9050    -2.4005 H       
  39 H39           -2.1456     1.9147    -0.0363 H       
  40 H40           -2.1996     4.3765    -0.0083 H       
  41 H41            2.0635     4.4689     0.0764 H       
  42 H42            2.7885     1.5555    -0.9559 H       
  43 H43            3.2488     2.4408     0.5181 H       
  44 H44            2.3928     0.8853     0.6449 H       
  45 H45           -0.1330     6.4320     1.0836 H       
  46 H46            0.7872     6.4687    -0.4396 H       
  47 H47           -0.9920     6.4301    -0.4754 H       
@<TRIPOS>BOND
   1    1    2 1
   2    1   22 ar
   3    1   26 ar
   4    2    3 1
   5    2    4 2
   6    2   19 1
   7    3    5 1
   8    3   29 1
   9    5    6 2
  10    5    9 1
  11    6    7 1
  12    6   10 1
  13    7    8 1
  14    8    9 2
  15    8   13 1
  16    9   30 1
  17   10   11 2
  18   10   12 1
  19   12   31 1
  20   13   14 ar
  21   13   18 ar
  22   14   15 ar
  23   14   32 1
  24   15   16 ar
  25   15   33 1
  26   16   17 ar
  27   16   21 1
  28   17   18 ar
  29   17   34 1
  30   18   35 1
  31   19   20 1
  32   20   36 1
  33   20   37 1
  34   20   38 1
  35   22   23 ar
  36   22   39 1
  37   23   24 ar
  38   23   40 1
  39   24   25 ar
  40   24   28 1
  41   25   26 ar
  42   25   41 1
  43   26   27 1
  44   27   42 1
  45   27   43 1
  46   27   44 1
  47   28   45 1
  48   28   46 1
  49   28   47 1

#	End of record

