#	Name: ASD01940421
#	Creating user name:	WinNT
#	Creation time:	15. 06. 2019 20:12

#	Modifying user name:	WinNT
#	Modification time:	15. 06. 2019 20:12

#	Program:	/corina/corina34_cracker 3.40 0067  02.08.2006

@<TRIPOS>MOLECULE
ASD01940421
  48   50    0    0    0
SMALL
NO_CHARGES


@<TRIPOS>ATOM
   1 C1             0.1283     1.3887    -0.6072 C.ar    
   2 C2             0.1293    -0.0039    -0.6676 C.ar    
   3 C3             1.3093    -0.6738    -0.8364 C.ar    
   4 C4             2.5071     0.0261    -0.9476 C.ar    
   5 C5             2.5209     1.4123    -0.8888 C.ar    
   6 C6             1.3342     2.1019    -0.7193 C.ar    
   7 O7             1.3064     3.4538    -0.6576 O.3     
   8 C8             0.1534     4.1184    -0.4922 C.2     
   9 N9            -1.0336     3.5008    -0.3778 N.am    
  10 C10           -1.1182     2.1522    -0.4202 C.2     
  11 C11           -2.2500     4.2974    -0.1982 C.3     
  12 C12           -2.8349     4.6319    -1.5462 C.ar    
  13 C13           -3.7554     3.7808    -2.1297 C.ar    
  14 C14           -4.2952     4.0837    -3.3660 C.ar    
  15 C15           -3.9153     5.2400    -4.0231 C.ar    
  16 C16           -2.9898     6.0971    -3.4381 C.ar    
  17 C17           -2.4548     5.7912    -2.1943 C.ar    
  18 O18           -2.1896     1.5872    -0.3128 O.2     
  19 O19            0.1841     5.3320    -0.4434 O.2     
  20 O20            3.6711    -0.6527    -1.1144 O.3     
  21 C21            4.5634    -0.5935    -0.1070 C.2     
  22 O22            4.3478     0.1174     0.8546 O.2     
  23 N23            5.6953    -1.3227    -0.1656 N.am    
  24 C24            6.6658    -1.2583     0.9300 C.3     
  25 C25            5.9553    -2.1798    -1.3250 C.3     
  26 N26           -2.6023     7.2689    -4.0999 N.am    
  27 C27           -2.3218     8.3812    -3.3923 C.2     
  28 O28           -2.3362     8.3483    -2.1799 O.2     
  29 C29           -1.9902     9.6656    -4.1074 C.3     
  30 F30           -4.4423     5.5359    -5.2313 F       
  31 H31           -0.7977    -0.5513    -0.5810 H       
  32 H32            1.3118    -1.7528    -0.8834 H       
  33 H33            3.4536     1.9500    -0.9750 H       
  34 H34           -2.9757     3.7268     0.3813 H       
  35 H35           -2.0062     5.2187     0.3308 H       
  36 H36           -4.0532     2.8773    -1.6185 H       
  37 H37           -5.0137     3.4168    -3.8192 H       
  38 H38           -1.7390     6.4571    -1.7353 H       
  39 H39            6.4286    -2.0218     1.6708 H       
  40 H40            7.6681    -1.4312     0.5381 H       
  41 H41            6.6227    -0.2739     1.3961 H       
  42 H42            5.1284    -2.0975    -2.0304 H       
  43 H43            6.8793    -1.8648    -1.8098 H       
  44 H44            6.0515    -3.2149    -0.9972 H       
  45 H45           -2.5357     7.2801    -5.0675 H       
  46 H46           -2.9060    10.2295    -4.2848 H       
  47 H47           -1.3116    10.2582    -3.4939 H       
  48 H48           -1.5133     9.4380    -5.0607 H       
@<TRIPOS>BOND
   1    1    2 ar
   2    1    6 ar
   3    1   10 1
   4    2    3 ar
   5    2   31 1
   6    3    4 ar
   7    3   32 1
   8    4    5 ar
   9    4   20 1
  10    5    6 ar
  11    5   33 1
  12    6    7 1
  13    7    8 1
  14    8    9 am
  15    8   19 2
  16    9   10 am
  17    9   11 1
  18   10   18 2
  19   11   12 1
  20   11   34 1
  21   11   35 1
  22   12   13 ar
  23   12   17 ar
  24   13   14 ar
  25   13   36 1
  26   14   15 ar
  27   14   37 1
  28   15   16 ar
  29   15   30 1
  30   16   17 ar
  31   16   26 1
  32   17   38 1
  33   20   21 1
  34   21   22 2
  35   21   23 am
  36   23   24 1
  37   23   25 1
  38   24   39 1
  39   24   40 1
  40   24   41 1
  41   25   42 1
  42   25   43 1
  43   25   44 1
  44   26   27 am
  45   26   45 1
  46   27   28 2
  47   27   29 1
  48   29   46 1
  49   29   47 1
  50   29   48 1

#	End of record

