#	Name: ASD00310014
#	Creating user name:	WinNT
#	Creation time:	15. 06. 2019 18:33

#	Modifying user name:	WinNT
#	Modification time:	15. 06. 2019 18:33

#	Program:	/corina/corina34_cracker 3.40 0067  02.08.2006

@<TRIPOS>MOLECULE
ASD00310014
  33   35    0    0    0
SMALL
NO_CHARGES


@<TRIPOS>ATOM
   1 N1            -0.0153     1.2793     0.0091 N.pl3   
   2 N2             0.0021    -0.0041     0.0020 N.2     
   3 C3             1.2291    -0.4802    -0.0122 C.2     
   4 C4             2.1244     0.6858    -0.0145 C.ar    
   5 C5             3.5005     0.8756    -0.0266 C.ar    
   6 C6             4.0094     2.1719    -0.0245 C.ar    
   7 C7             3.1341     3.2702    -0.0098 C.ar    
   8 C8             1.7827     3.0838     0.0025 C.ar    
   9 C9             1.2544     1.7949    -0.0003 C.ar    
  10 C10            1.6258    -1.8979    -0.0236 C.2     
  11 O11            2.8031    -2.1994    -0.0361 O.2     
  12 O12            0.6834    -2.8616    -0.0203 O.3     
  13 C13            5.4254     2.3851    -0.0369 C.1     
  14 C14            6.5862     2.5598    -0.0470 C.1     
  15 C15            8.0022     2.7730    -0.0594 C.ar    
  16 C16            8.5167     4.0723    -0.0573 C.ar    
  17 C17            9.8816     4.2699    -0.0688 C.ar    
  18 C18           10.7410     3.1854    -0.0824 C.ar    
  19 C19           10.2389     1.8959    -0.0849 C.ar    
  20 C20            8.8763     1.6828    -0.0677 C.ar    
  21 Cl21           3.7787     4.8821    -0.0067 Cl      
  22 C22            1.1473    -4.2374    -0.0321 C.3     
  23 H23           -0.8236     1.8155     0.0160 H       
  24 H24            4.1684     0.0270    -0.0372 H       
  25 H25            1.1211     3.9373     0.0145 H       
  26 H26            7.8471     4.9196    -0.0471 H       
  27 H27           10.2806     5.2734    -0.0676 H       
  28 H28           11.8089     3.3461    -0.0913 H       
  29 H29           10.9156     1.0543    -0.0963 H       
  30 H30            8.4859     0.6758    -0.0653 H       
  31 H31            1.7421    -4.4126    -0.9285 H       
  32 H32            1.7584    -4.4223     0.8513 H       
  33 H33            0.2896    -4.9101    -0.0280 H       
@<TRIPOS>BOND
   1    1    2 1
   2    1    9 1
   3    1   23 1
   4    2    3 2
   5    3    4 1
   6    3   10 1
   7    4    5 ar
   8    4    9 ar
   9    5    6 ar
  10    5   24 1
  11    6    7 ar
  12    6   13 1
  13    7    8 ar
  14    7   21 1
  15    8    9 ar
  16    8   25 1
  17   10   11 2
  18   10   12 1
  19   12   22 1
  20   13   14 3
  21   14   15 1
  22   15   16 ar
  23   15   20 ar
  24   16   17 ar
  25   16   26 1
  26   17   18 ar
  27   17   27 1
  28   18   19 ar
  29   18   28 1
  30   19   20 ar
  31   19   29 1
  32   20   30 1
  33   22   31 1
  34   22   32 1
  35   22   33 1

#	End of record

