#	Name: ASD01884501
#	Creating user name:	WinNT
#	Creation time:	15. 06. 2019 19:48

#	Modifying user name:	WinNT
#	Modification time:	15. 06. 2019 19:48

#	Program:	/corina/corina34_cracker 3.40 0067  02.08.2006

@<TRIPOS>MOLECULE
ASD01884501
  38   40    0    0    0
SMALL
NO_CHARGES


@<TRIPOS>ATOM
   1 C1            -0.0164     1.3598     0.0095 C.2     
   2 C2             0.0021    -0.0041     0.0020 C.2     
   3 C3             1.2342    -0.6727    -0.0133 C.2     
   4 C4             2.3874     0.0358    -0.0205 C.2     
   5 N5             2.3670     1.3933    -0.0126 N.am    
   6 C6             1.1996     2.0643     0.0017 C.2     
   7 C7             3.6294     2.1366    -0.0197 C.3     
   8 O8             1.1975     3.2849     0.0083 O.2     
   9 C9             4.0495     2.3996    -1.4429 C.ar    
  10 C10            3.6347     3.5519    -2.0840 C.ar    
  11 C11            4.0197     3.7936    -3.3893 C.ar    
  12 C12            4.8204     2.8821    -4.0542 C.ar    
  13 C13            5.2352     1.7290    -3.4120 C.ar    
  14 C14            4.8542     1.4911    -2.1048 C.ar    
  15 Cl15           5.3039     3.1847    -5.6938 Cl      
  16 C16            1.2747    -2.1791    -0.0213 C.3     
  17 C17            1.1781    -2.6917     1.3925 C.ar    
  18 C18           -0.0596    -2.9582     1.9476 C.ar    
  19 C19           -0.1494    -3.4287     3.2439 C.ar    
  20 C20            1.0010    -3.6333     3.9868 C.ar    
  21 C21            2.2402    -3.3660     3.4298 C.ar    
  22 C22            2.3277    -2.9005     2.1315 C.ar    
  23 F23            0.9145    -4.0928     5.2543 F       
  24 H24           -0.9557     1.8927     0.0169 H       
  25 H25           -0.9222    -0.5627     0.0082 H       
  26 H26            3.3339    -0.4842    -0.0324 H       
  27 H27            3.4957     3.0849     0.5008 H       
  28 H28            4.3986     1.5511     0.4839 H       
  29 H29            3.0094     4.2633    -1.5650 H       
  30 H30            3.6953     4.6938    -3.8902 H       
  31 H31            5.8603     1.0170    -3.9305 H       
  32 H32            5.1780     0.5910    -1.6034 H       
  33 H33            0.4372    -2.5620    -0.6046 H       
  34 H34            2.2112    -2.5151    -0.4665 H       
  35 H35           -0.9568    -2.7983     1.3681 H       
  36 H36           -1.1164    -3.6365     3.6775 H       
  37 H37            3.1382    -3.5251     4.0083 H       
  38 H38            3.2941    -2.6920     1.6968 H       
@<TRIPOS>BOND
   1    1    2 2
   2    1    6 1
   3    1   24 1
   4    2    3 1
   5    2   25 1
   6    3    4 2
   7    3   16 1
   8    4    5 1
   9    4   26 1
  10    5    6 am
  11    5    7 1
  12    6    8 2
  13    7    9 1
  14    7   27 1
  15    7   28 1
  16    9   10 ar
  17    9   14 ar
  18   10   11 ar
  19   10   29 1
  20   11   12 ar
  21   11   30 1
  22   12   13 ar
  23   12   15 1
  24   13   14 ar
  25   13   31 1
  26   14   32 1
  27   16   17 1
  28   16   33 1
  29   16   34 1
  30   17   18 ar
  31   17   22 ar
  32   18   19 ar
  33   18   35 1
  34   19   20 ar
  35   19   36 1
  36   20   21 ar
  37   20   23 1
  38   21   22 ar
  39   21   37 1
  40   22   38 1

#	End of record

