#	Name: ASD01881332
#	Creating user name:	WinNT
#	Creation time:	15. 06. 2019 19:42

#	Modifying user name:	WinNT
#	Modification time:	15. 06. 2019 19:42

#	Program:	/corina/corina34_cracker 3.40 0067  02.08.2006

@<TRIPOS>MOLECULE
ASD01881332
  64   66    0    0    0
SMALL
NO_CHARGES


@<TRIPOS>ATOM
   1 C1            -0.0180     1.4732     0.0101 C.2     
   2 C2             0.0021    -0.0041     0.0020 C.ar    
   3 C3             1.2187    -0.6881    -0.0133 C.ar    
   4 C4             1.2294    -2.0724    -0.0209 C.ar    
   5 C5             0.0327    -2.7768    -0.0133 C.ar    
   6 C6            -1.1732    -2.1008     0.0019 C.ar    
   7 C7            -1.1958    -0.7211     0.0154 C.ar    
   8 O8             1.0256     2.0948     0.0035 O.2     
   9 O9            -1.1936     2.1308     0.0193 O.3     
  10 C10            0.0486    -4.2836    -0.0221 C.3     
  11 O11            2.4118    -2.7424    -0.0362 O.3     
  12 C12            3.6039    -1.9544    -0.0438 C.3     
  13 C13            4.8246    -2.8766    -0.0608 C.3     
  14 C14            6.1010    -2.0330    -0.0689 C.3     
  15 C15            7.3218    -2.9551    -0.0860 C.3     
  16 O16            8.5139    -2.1672    -0.0936 O.3     
  17 C17            9.6941    -2.8360    -0.1089 C.ar    
  18 C18           10.8883    -2.1289    -0.1169 C.ar    
  19 C19           12.0934    -2.8090    -0.1321 C.ar    
  20 C20           12.0973    -4.2158    -0.1392 C.ar    
  21 C21           10.8816    -4.9129    -0.1310 C.ar    
  22 C22            9.7013    -4.2283    -0.1107 C.ar    
  23 C23           10.8727    -0.6220    -0.1096 C.3     
  24 O24           13.2634    -2.1235    -0.1404 O.3     
  25 C25           13.3658    -4.9483    -0.1558 C.2     
  26 O26           14.4166    -4.3417    -0.1633 O.2     
  27 C27           13.3656    -6.4553    -0.1634 C.3     
  28 C28           14.8080    -6.9653    -0.1806 C.3     
  29 C29           14.8260    -8.4995    -0.0625 C.3     
  30 C30           15.5033    -9.0320    -1.3422 C.3     
  31 C31           16.3689    -7.8461    -1.8355 C.3     
  32 C32           15.4750    -6.6192    -1.5278 C.3     
  33 H33            2.1488    -0.1391    -0.0195 H       
  34 H34           -2.1005    -2.6544     0.0077 H       
  35 H35           -2.1395    -0.1963     0.0321 H       
  36 H36           -1.1561     3.0971     0.0244 H       
  37 H37            0.0624    -4.6528     1.0034 H       
  38 H38           -0.8425    -4.6534    -0.5294 H       
  39 H39            0.9373    -4.6346    -0.5466 H       
  40 H40            3.6149    -1.3206    -0.9305 H       
  41 H41            3.6325    -1.3303     0.8494 H       
  42 H42            4.8137    -3.5104     0.8259 H       
  43 H43            4.7960    -3.5008    -0.9540 H       
  44 H44            6.1120    -1.3992    -0.9557 H       
  45 H45            6.1296    -1.4088     0.8242 H       
  46 H46            7.3108    -3.5889     0.8007 H       
  47 H47            7.2931    -3.5793    -0.9791 H       
  48 H48           10.8790    -5.9928    -0.1364 H       
  49 H49            8.7670    -4.7699    -0.0999 H       
  50 H50           10.8787    -0.2635     0.9198 H       
  51 H51           11.7539    -0.2470    -0.6301 H       
  52 H52            9.9741    -0.2655    -0.6132 H       
  53 H53           13.6115    -1.9289     0.7405 H       
  54 H54           12.8608    -6.8231     0.7299 H       
  55 H55           12.8428    -6.8141    -1.0500 H       
  56 H56           15.3707    -6.5211     0.6405 H       
  57 H57           15.3982    -8.7997     0.8153 H       
  58 H58           13.8072    -8.8806     0.0070 H       
  59 H59           16.1312    -9.8926    -1.1116 H       
  60 H60           14.7543    -9.2943    -2.0893 H       
  61 H61           17.3040    -7.7922    -1.2780 H       
  62 H62           16.5600    -7.9262    -2.9056 H       
  63 H63           14.7214    -6.4918    -2.3050 H       
  64 H64           16.0822    -5.7190    -1.4327 H       
@<TRIPOS>BOND
   1    1    2 1
   2    1    8 2
   3    1    9 1
   4    2    3 ar
   5    2    7 ar
   6    3    4 ar
   7    3   33 1
   8    4    5 ar
   9    4   11 1
  10    5    6 ar
  11    5   10 1
  12    6    7 ar
  13    6   34 1
  14    7   35 1
  15    9   36 1
  16   10   37 1
  17   10   38 1
  18   10   39 1
  19   11   12 1
  20   12   13 1
  21   12   40 1
  22   12   41 1
  23   13   14 1
  24   13   42 1
  25   13   43 1
  26   14   15 1
  27   14   44 1
  28   14   45 1
  29   15   16 1
  30   15   46 1
  31   15   47 1
  32   16   17 1
  33   17   18 ar
  34   17   22 ar
  35   18   19 ar
  36   18   23 1
  37   19   20 ar
  38   19   24 1
  39   20   21 ar
  40   20   25 1
  41   21   22 ar
  42   21   48 1
  43   22   49 1
  44   23   50 1
  45   23   51 1
  46   23   52 1
  47   24   53 1
  48   25   26 2
  49   25   27 1
  50   27   28 1
  51   27   54 1
  52   27   55 1
  53   28   29 1
  54   28   32 1
  55   28   56 1
  56   29   30 1
  57   29   57 1
  58   29   58 1
  59   30   31 1
  60   30   59 1
  61   30   60 1
  62   31   32 1
  63   31   61 1
  64   31   62 1
  65   32   63 1
  66   32   64 1

#	End of record

