#	Name: ASD02198872
#	Creating user name:	WinNT
#	Creation time:	15. 06. 2019 20:20

#	Modifying user name:	WinNT
#	Modification time:	15. 06. 2019 20:20

#	Program:	/corina/corina34_cracker 3.40 0067  02.08.2006

@<TRIPOS>MOLECULE
ASD02198872
  53   57    0    0    0
SMALL
NO_CHARGES


@<TRIPOS>ATOM
   1 F1             2.2512    -1.7108     2.4728 F       
   2 C2            -0.0436     1.5035    -0.1143 C.2     
   3 C3            -0.0738     0.1638     0.0983 C.2     
   4 N4             1.0702    -0.5382     0.2611 N.pl3   
   5 N5             2.2349    -0.0038     0.2273 N.2     
   6 C6             2.4069     1.2855     0.0285 C.2     
   7 C7             1.2215     2.1370    -0.1600 C.2     
   8 C8             0.9781    -1.9173     0.4778 C.ar    
   9 C9             1.5784    -2.4879     1.5961 C.ar    
  10 C10            1.4861    -3.8504     1.8089 C.ar    
  11 C11            0.7948    -4.6483     0.9070 C.ar    
  12 C12            0.1958    -4.0779    -0.2091 C.ar    
  13 C13            0.2825    -2.7171    -0.4204 C.ar    
  14 C14            3.7641     1.8673    -0.0039 C.2     
  15 N15            4.3066     2.6067    -1.0171 N.pl3   
  16 N16            5.6085     2.9581    -0.6389 N.2     
  17 C17            5.8517     2.4590     0.5467 C.2     
  18 C18            4.7194     1.7719     0.9842 C.2     
  19 C19            3.6742     2.9510    -2.2185 C.ar    
  20 C20            2.9120     2.0094    -2.8977 C.ar    
  21 C21            2.2878     2.3492    -4.0825 C.ar    
  22 C22            2.4199     3.6256    -4.5947 C.ar    
  23 C23            3.1808     4.5706    -3.9204 C.ar    
  24 C24            3.8038     4.2352    -2.7288 C.ar    
  25 O25            1.3249     3.3400    -0.3484 O.2     
  26 N26            0.7016    -6.0300     1.1226 N.pl3   
  27 C27            0.0524    -6.9221     0.3134 C.2     
  28 C28            0.1844    -8.1527     0.8517 C.2     
  29 C29            0.9415    -8.0191     2.0352 C.2     
  30 C30            1.2497    -6.7124     2.1743 C.2     
  31 F31           -0.3170    -9.3024     0.3495 F       
  32 F32            1.2973    -9.0175     2.8730 F       
  33 C33            7.1399     2.6074     1.3145 C.3     
  34 O34            3.3106     5.8255    -4.4258 O.3     
  35 C35            2.6367     6.1027    -5.6551 C.3     
  36 F36            1.2618     5.9050    -5.4880 F       
  37 F37            2.8751     7.4296    -6.0286 F       
  38 F38            3.1134     5.2447    -6.6520 F       
  39 H39           -0.9548     2.0675    -0.2489 H       
  40 H40           -1.0238    -0.3483     0.1384 H       
  41 H41            1.9518    -4.2945     2.6762 H       
  42 H42           -0.3416    -4.6996    -0.9099 H       
  43 H43           -0.1839    -2.2747    -1.2882 H       
  44 H44            4.6130     1.2529     1.9254 H       
  45 H45            2.8075     1.0109    -2.4996 H       
  46 H46            1.6958     1.6155    -4.6095 H       
  47 H47            1.9308     3.8883    -5.5211 H       
  48 H48            4.3962     4.9692    -2.2027 H       
  49 H49           -0.4749    -6.6827    -0.5982 H       
  50 H50            1.8234    -6.2793     2.9803 H       
  51 H51            7.0920     3.5022     1.9351 H       
  52 H52            7.2879     1.7331     1.9483 H       
  53 H53            7.9716     2.6943     0.6153 H       
@<TRIPOS>BOND
   1    1    9 1
   2    2    3 2
   3    2    7 1
   4    2   39 1
   5    3    4 1
   6    3   40 1
   7    4    5 1
   8    4    8 1
   9    5    6 2
  10    6    7 1
  11    6   14 1
  12    7   25 2
  13    8    9 ar
  14    8   13 ar
  15    9   10 ar
  16   10   11 ar
  17   10   41 1
  18   11   12 ar
  19   11   26 1
  20   12   13 ar
  21   12   42 1
  22   13   43 1
  23   14   15 1
  24   14   18 2
  25   15   16 1
  26   15   19 1
  27   16   17 2
  28   17   18 1
  29   17   33 1
  30   18   44 1
  31   19   20 ar
  32   19   24 ar
  33   20   21 ar
  34   20   45 1
  35   21   22 ar
  36   21   46 1
  37   22   23 ar
  38   22   47 1
  39   23   24 ar
  40   23   34 1
  41   24   48 1
  42   26   27 1
  43   26   30 1
  44   27   28 2
  45   27   49 1
  46   28   29 1
  47   28   31 1
  48   29   30 2
  49   29   32 1
  50   30   50 1
  51   33   51 1
  52   33   52 1
  53   33   53 1
  54   34   35 1
  55   35   36 1
  56   35   37 1
  57   35   38 1

#	End of record

