#	Name: ASD03540492
#	Creating user name:	WinNT
#	Creation time:	15. 06. 2019 20:43

#	Modifying user name:	WinNT
#	Modification time:	15. 06. 2019 20:43

#	Program:	/corina/corina34_cracker 3.40 0067  02.08.2006

@<TRIPOS>MOLECULE
ASD03540492
  61   64    0    0    0
SMALL
NO_CHARGES


@<TRIPOS>ATOM
   1 C1             2.6784    -8.6796    -2.6463 C.2     
   2 C2             2.0061    -7.5499    -1.9724 C.ar    
   3 C3             0.6312    -7.5940    -1.7327 C.ar    
   4 C4             0.0099    -6.5359    -1.1025 C.ar    
   5 C5             0.7459    -5.4324    -0.7085 C.ar    
   6 C6             2.1086    -5.3819    -0.9433 C.ar    
   7 C7             2.7436    -6.4358    -1.5670 C.ar    
   8 O8             2.0350    -9.6497    -2.9933 O.2     
   9 O9             4.0040    -8.6315    -2.8810 O.3     
  10 C10            0.0601    -4.2800    -0.0210 C.3     
  11 N11           -3.3737    -4.7481     1.2287 N.am    
  12 C12           -2.2986    -4.3338     0.5372 C.2     
  13 N13           -1.0579    -4.7846     0.7800 N.am    
  14 C14           -0.8212    -5.6954     1.7492 C.2     
  15 C15           -1.9651    -6.1858     2.5398 C.ar    
  16 C16           -1.8037    -7.1224     3.5530 C.ar    
  17 C17           -2.9207    -7.5515     4.2687 C.ar    
  18 C18           -4.1883    -7.0401     3.9644 C.ar    
  19 C19           -4.3467    -6.1190     2.9678 C.ar    
  20 C20           -3.2454    -5.6797     2.2441 C.ar    
  21 O21            0.3050    -6.1003     1.9635 O.2     
  22 O22           -2.4565    -3.5145    -0.3470 O.2     
  23 C23           -2.7668    -8.5468     5.3484 C.2     
  24 N24           -3.8460    -8.9622     6.0407 N.am    
  25 O25           -1.6667    -8.9915     5.6129 O.2     
  26 C26           -3.6933    -9.9497     7.1121 C.3     
  27 C27           -5.0401   -10.2410     7.7223 C.ar    
  28 C28           -5.8241   -11.2585     7.2107 C.ar    
  29 C29           -7.0590   -11.5276     7.7683 C.ar    
  30 C30           -7.5123   -10.7759     8.8426 C.ar    
  31 C31           -6.7238    -9.7554     9.3541 C.ar    
  32 C32           -5.4872    -9.4941     8.7965 C.ar    
  33 O33           -8.7270   -11.0383     9.3926 O.3     
  34 C34           -9.1291   -10.2242    10.4961 C.3     
  35 C35            1.0580    -3.5631     0.8907 C.3     
  36 C36            0.3979    -2.3208     1.4923 C.3     
  37 H37            0.0555    -8.4544    -2.0403 H       
  38 H38           -1.0534    -6.5687    -0.9165 H       
  39 H39            2.6769    -4.5173    -0.6339 H       
  40 H40            3.8081    -6.3972    -1.7453 H       
  41 H41            4.3993    -9.3943    -3.3247 H       
  42 H42           -0.3151    -3.5817    -0.7692 H       
  43 H43           -4.2488    -4.3878     1.0161 H       
  44 H44           -0.8239    -7.5140     3.7835 H       
  45 H45           -5.0491    -7.3774     4.5227 H       
  46 H46           -5.3295    -5.7322     2.7422 H       
  47 H47           -4.7237    -8.6073     5.8297 H       
  48 H48           -3.2737   -10.8684     6.7023 H       
  49 H49           -3.0253    -9.5550     7.8776 H       
  50 H50           -5.4709   -11.8432     6.3742 H       
  51 H51           -7.6712   -12.3223     7.3681 H       
  52 H52           -7.0745    -9.1688    10.1903 H       
  53 H53           -4.8709    -8.7029     9.1974 H       
  54 H54          -10.1149   -10.5382    10.8391 H       
  55 H55           -8.4102   -10.3323    11.3083 H       
  56 H56           -9.1688    -9.1810    10.1825 H       
  57 H57            1.3658    -4.2350     1.6919 H       
  58 H58            1.9314    -3.2655     0.3105 H       
  59 H59            0.0901    -1.6489     0.6911 H       
  60 H60           -0.4755    -2.6184     2.0726 H       
  61 H61            1.1088    -1.8101     2.1418 H       
@<TRIPOS>BOND
   1    1    2 1
   2    1    8 2
   3    1    9 1
   4    2    3 ar
   5    2    7 ar
   6    3    4 ar
   7    3   37 1
   8    4    5 ar
   9    4   38 1
  10    5    6 ar
  11    5   10 1
  12    6    7 ar
  13    6   39 1
  14    7   40 1
  15    9   41 1
  16   10   13 1
  17   10   35 1
  18   10   42 1
  19   11   12 am
  20   11   20 1
  21   11   43 1
  22   12   13 am
  23   12   22 2
  24   13   14 am
  25   14   15 1
  26   14   21 2
  27   15   16 ar
  28   15   20 ar
  29   16   17 ar
  30   16   44 1
  31   17   18 ar
  32   17   23 1
  33   18   19 ar
  34   18   45 1
  35   19   20 ar
  36   19   46 1
  37   23   24 am
  38   23   25 2
  39   24   26 1
  40   24   47 1
  41   26   27 1
  42   26   48 1
  43   26   49 1
  44   27   28 ar
  45   27   32 ar
  46   28   29 ar
  47   28   50 1
  48   29   30 ar
  49   29   51 1
  50   30   31 ar
  51   30   33 1
  52   31   32 ar
  53   31   52 1
  54   32   53 1
  55   33   34 1
  56   34   54 1
  57   34   55 1
  58   34   56 1
  59   35   36 1
  60   35   57 1
  61   35   58 1
  62   36   59 1
  63   36   60 1
  64   36   61 1

#	End of record

