#	Name: ASD01884313
#	Creating user name:	WinNT
#	Creation time:	15. 06. 2019 19:48

#	Modifying user name:	WinNT
#	Modification time:	15. 06. 2019 19:48

#	Program:	/corina/corina34_cracker 3.40 0067  02.08.2006

@<TRIPOS>MOLECULE
ASD01884313
  51   53    0    0    0
SMALL
NO_CHARGES


@<TRIPOS>ATOM
   1 C1            -1.7108    -1.5536    -3.5640 C.ar    
   2 C2            -1.2616    -2.1619    -2.3882 C.ar    
   3 C3            -1.8810    -1.8825    -1.1909 C.ar    
   4 C4            -2.9520    -0.9968    -1.1500 C.ar    
   5 C5            -3.4021    -0.3900    -2.3172 C.ar    
   6 C6            -2.7841    -0.6591    -3.5177 C.ar    
   7 O7            -3.5598    -0.7241     0.0320 O.3     
   8 C8            -4.6678     0.0606     0.0130 C.ar    
   9 C9            -5.9219    -0.5146    -0.1504 C.ar    
  10 C10           -4.5454     1.4364     0.1629 C.ar    
  11 C11           -5.6678     2.2357     0.1445 C.ar    
  12 C12           -6.9285     1.6617    -0.0248 C.ar    
  13 C13           -7.0483     0.2790    -0.1701 C.ar    
  14 C14           -8.1367     2.5173    -0.0444 C.2     
  15 C15           -1.0502    -1.8499    -4.8487 C.2     
  16 O16           -1.4846    -1.2625    -5.9810 O.3     
  17 C17           -0.7872    -1.6010    -7.2087 C.3     
  18 O18           -0.1142    -2.6237    -4.8863 O.2     
  19 C19           -8.9065     2.6249    -1.1940 C.2     
  20 C20           -8.5290     3.2339     1.1094 C.2     
  21 C21           -9.6335     4.0089     1.0741 C.2     
  22 N22          -10.3793     4.1130    -0.0578 N.am    
  23 C23          -10.0448     3.4442    -1.1767 C.2     
  24 Cl24          -8.4667     1.7587    -2.6326 Cl      
  25 O25          -10.7310     3.5548    -2.1806 O.2     
  26 C26          -11.5718     4.9641    -0.0579 C.3     
  27 C27          -11.1859     6.3824    -0.4824 C.3     
  28 C28          -12.4313     7.2713    -0.4825 C.3     
  29 C29          -12.0455     8.6897    -0.9071 C.3     
  30 H30           -0.4300    -2.8503    -2.4191 H       
  31 H31           -1.5349    -2.3523    -0.2821 H       
  32 H32           -4.2347     0.2969    -2.2814 H       
  33 H33           -3.1344    -0.1874    -4.4239 H       
  34 H34           -6.0139    -1.5848    -0.2625 H       
  35 H35           -3.5694     1.8800     0.2942 H       
  36 H36           -5.5720     3.3051     0.2614 H       
  37 H37           -8.0225    -0.1683    -0.3017 H       
  38 H38           -0.8648    -2.6736    -7.3868 H       
  39 H39           -1.2360    -1.0609    -8.0423 H       
  40 H40            0.2628    -1.3227    -7.1186 H       
  41 H41           -7.9470     3.1612     2.0162 H       
  42 H42           -9.9293     4.5541     1.9582 H       
  43 H43          -12.3049     4.5622    -0.7572 H       
  44 H44          -12.0006     4.9887     0.9439 H       
  45 H45          -10.4528     6.7843     0.2169 H       
  46 H46          -10.7571     6.3578    -1.4842 H       
  47 H47          -13.1645     6.8695    -1.1818 H       
  48 H48          -12.8601     7.2959     0.5193 H       
  49 H49          -11.3123     9.0915    -0.2077 H       
  50 H50          -11.6166     8.6651    -1.9088 H       
  51 H51          -12.9327     9.3229    -0.9071 H       
@<TRIPOS>BOND
   1    1    2 ar
   2    1   15 1
   3    1    6 ar
   4    2    3 ar
   5    2   30 1
   6    3    4 ar
   7    3   31 1
   8    4    5 ar
   9    4    7 1
  10    5    6 ar
  11    5   32 1
  12    6   33 1
  13    7    8 1
  14    8    9 ar
  15    8   10 ar
  16    9   13 ar
  17    9   34 1
  18   10   11 ar
  19   10   35 1
  20   11   12 ar
  21   11   36 1
  22   12   13 ar
  23   12   14 1
  24   13   37 1
  25   14   19 2
  26   14   20 1
  27   15   16 1
  28   15   18 2
  29   16   17 1
  30   17   38 1
  31   17   39 1
  32   17   40 1
  33   19   24 1
  34   19   23 1
  35   20   21 2
  36   20   41 1
  37   21   22 1
  38   21   42 1
  39   22   23 am
  40   22   26 1
  41   23   25 2
  42   26   27 1
  43   26   43 1
  44   26   44 1
  45   27   28 1
  46   27   45 1
  47   27   46 1
  48   28   29 1
  49   28   47 1
  50   28   48 1
  51   29   49 1
  52   29   50 1
  53   29   51 1

#	End of record

