#	Name: ASD04882228
#	Creating user name:	WinNT
#	Creation time:	15. 06. 2019 20:54

#	Modifying user name:	WinNT
#	Modification time:	15. 06. 2019 20:54

#	Program:	/corina/corina34_cracker 3.40 0067  02.08.2006

@<TRIPOS>MOLECULE
ASD04882228
  80   85    0    0    0
SMALL
NO_CHARGES


@<TRIPOS>ATOM
   1 N1            -0.1365     1.5556    -0.0362 N.am    
   2 C2            -0.0767     0.1557    -0.0459 C.ar    
   3 C3            -1.2531    -0.5951     0.0292 C.ar    
   4 C4            -1.1953    -1.9841     0.0192 C.ar    
   5 C5             0.0207    -2.6252    -0.0646 C.ar    
   6 C6             1.2010    -1.8804    -0.1400 C.ar    
   7 C7             1.1453    -0.4838    -0.1354 C.ar    
   8 N8            -2.4847     0.0490     0.1145 N.3     
   9 C9            -2.6116     0.7767     1.3849 C.3     
  10 C10           -3.5903    -0.9040    -0.0558 C.3     
  11 C11           -4.9205    -0.1472    -0.0352 C.3     
  12 N12           -5.0473     0.5805     1.2353 N.3     
  13 C13           -3.9417     1.5336     1.4056 C.3     
  14 C14           -6.2827     1.2266     1.3209 C.ar    
  15 C15            2.5034    -2.5674    -0.2297 C.2     
  16 O16            3.5298    -1.9186    -0.2952 O.2     
  17 C17            0.8452     2.2680     0.5513 C.2     
  18 O18            1.7287     1.6971     1.1625 O.2     
  19 C19           -6.6349     2.1833     0.3770 C.ar    
  20 C20           -7.1641     0.9099     2.3464 C.ar    
  21 C21           -8.3850     1.5507     2.4281 C.ar    
  22 C22           -8.7302     2.5062     1.4902 C.ar    
  23 C23           -7.8570     2.8202     0.4647 C.ar    
  24 C24            0.8484     3.7372     0.4536 C.2     
  25 N25            2.5558    -3.9141    -0.2391 N.am    
  26 C26           -6.7892    -0.1320     3.3686 C.3     
  27 N27           -0.0893     4.4275    -0.2008 N.2     
  28 C28            0.0519     5.7062    -0.1956 C.2     
  29 S29            1.4489     6.1518     0.6797 S.3     
  30 C30            1.7977     4.5139     1.0227 C.2     
  31 C31            3.8491    -4.5963    -0.3282 C.3     
  32 C32            3.6288    -6.1104    -0.3202 C.3     
  33 C33           -0.8847     6.6759    -0.8691 C.3     
  34 C34           -1.5797     7.7150     0.0130 C.3     
  35 C35           -0.4562     8.1432    -0.9331 C.3     
  36 C36            4.9796    -6.8228    -0.4132 C.3     
  37 N37            4.7686    -8.2725    -0.4055 N.am    
  38 C38            4.5860    -9.0183    -1.5089 C.2     
  39 C39            4.7355    -9.0981     0.8074 C.3     
  40 C40            4.0697   -10.4262     0.3840 C.3     
  41 C41            4.3894   -10.4695    -1.1294 C.3     
  42 O42            4.5793    -8.5900    -2.6435 O.2     
  43 H43           -0.8824     2.0121    -0.4559 H       
  44 H44           -2.1060    -2.5617     0.0777 H       
  45 H45            0.0623    -3.7044    -0.0718 H       
  46 H46            2.0556     0.0943    -0.1935 H       
  47 H47           -2.5828     0.0693     2.2137 H       
  48 H48           -1.7887     1.4849     1.4821 H       
  49 H49           -3.4810    -1.4212    -1.0091 H       
  50 H50           -3.5727    -1.6305     0.7566 H       
  51 H51           -4.9493     0.5602    -0.8639 H       
  52 H52           -5.7434    -0.8554    -0.1323 H       
  53 H53           -4.0510     2.0508     2.3588 H       
  54 H54           -3.9594     2.2601     0.5932 H       
  55 H55           -5.9535     2.4290    -0.4240 H       
  56 H56           -9.0709     1.3050     3.2254 H       
  57 H57           -9.6857     3.0052     1.5560 H       
  58 H58           -8.1297     3.5669    -0.2663 H       
  59 H59            1.7370    -4.4317    -0.1868 H       
  60 H60           -6.2763     0.3459     4.2032 H       
  61 H61           -7.6905    -0.6264     3.7310 H       
  62 H62           -6.1295    -0.8692     2.9108 H       
  63 H63            2.6410     4.1576     1.5956 H       
  64 H64            4.3497    -4.3069    -1.2522 H       
  65 H65            4.4679    -4.3147     0.5238 H       
  66 H66            3.1283    -6.3998     0.6039 H       
  67 H67            3.0100    -6.3920    -1.1722 H       
  68 H68           -1.4454     6.2776    -1.7147 H       
  69 H69           -2.5976     8.0007    -0.2526 H       
  70 H70           -1.3595     7.6973     1.0803 H       
  71 H71            0.5032     8.4072    -0.4882 H       
  72 H72           -0.7348     8.7106    -1.8211 H       
  73 H73            5.4801    -6.5334    -1.3373 H       
  74 H74            5.5984    -6.5412     0.4387 H       
  75 H75            5.7482    -9.2815     1.1665 H       
  76 H76            4.1431    -8.6089     1.5806 H       
  77 H77            4.5229   -11.2720     0.9011 H       
  78 H78            2.9940   -10.3959     0.5572 H       
  79 H79            3.5548   -10.8991    -1.6835 H       
  80 H80            5.3017   -11.0378    -1.3105 H       
@<TRIPOS>BOND
   1    1    2 1
   2    1   17 am
   3    1   43 1
   4    2    3 ar
   5    2    7 ar
   6    3    4 ar
   7    3    8 1
   8    4    5 ar
   9    4   44 1
  10    5    6 ar
  11    5   45 1
  12    6    7 ar
  13    6   15 1
  14    7   46 1
  15    8    9 1
  16    8   10 1
  17    9   13 1
  18    9   47 1
  19    9   48 1
  20   10   11 1
  21   10   49 1
  22   10   50 1
  23   11   12 1
  24   11   51 1
  25   11   52 1
  26   12   13 1
  27   12   14 1
  28   13   53 1
  29   13   54 1
  30   14   19 ar
  31   14   20 ar
  32   15   16 2
  33   15   25 am
  34   17   18 2
  35   17   24 1
  36   19   23 ar
  37   19   55 1
  38   20   21 ar
  39   20   26 1
  40   21   22 ar
  41   21   56 1
  42   22   23 ar
  43   22   57 1
  44   23   58 1
  45   24   27 1
  46   24   30 2
  47   25   31 1
  48   25   59 1
  49   26   60 1
  50   26   61 1
  51   26   62 1
  52   27   28 2
  53   28   29 1
  54   28   33 1
  55   29   30 1
  56   30   63 1
  57   31   32 1
  58   31   64 1
  59   31   65 1
  60   32   36 1
  61   32   66 1
  62   32   67 1
  63   33   34 1
  64   33   35 1
  65   33   68 1
  66   34   35 1
  67   34   69 1
  68   34   70 1
  69   35   71 1
  70   35   72 1
  71   36   37 1
  72   36   73 1
  73   36   74 1
  74   37   38 am
  75   37   39 1
  76   38   42 2
  77   38   41 1
  78   39   40 1
  79   39   75 1
  80   39   76 1
  81   40   41 1
  82   40   77 1
  83   40   78 1
  84   41   79 1
  85   41   80 1

#	End of record

