#	Name: ASD04882365
#	Creating user name:	WinNT
#	Creation time:	15. 06. 2019 20:54

#	Modifying user name:	WinNT
#	Modification time:	15. 06. 2019 20:54

#	Program:	/corina/corina34_cracker 3.40 0067  02.08.2006

@<TRIPOS>MOLECULE
ASD04882365
  79   83    0    0    0
SMALL
NO_CHARGES


@<TRIPOS>ATOM
   1 N1            -0.5995     2.3064    -0.4977 N.am    
   2 C2            -0.6121     0.9116    -0.3651 C.ar    
   3 C3            -1.8199     0.2396    -0.1585 C.ar    
   4 C4            -1.8339    -1.1443    -0.0262 C.ar    
   5 C5            -0.6581    -1.8578    -0.0982 C.ar    
   6 C6             0.5533    -1.1920    -0.3046 C.ar    
   7 C7             0.5693     0.1987    -0.4440 C.ar    
   8 N8            -3.0110     0.9571    -0.0847 N.3     
   9 C9            -3.9470     0.5335    -1.1355 C.3     
  10 C10           -3.6227     0.8269     1.2452 C.3     
  11 C11           -4.8840     1.6914     1.3105 C.3     
  12 N12           -5.8200     1.2678     0.2597 N.3     
  13 C13           -5.2083     1.3980    -1.0702 C.3     
  14 C14            1.8128    -1.9565    -0.3807 C.2     
  15 O15            2.8662    -1.3764    -0.5602 O.2     
  16 C16            0.3911     2.9091    -1.1848 C.2     
  17 C17            0.3570     4.3668    -1.4010 C.2     
  18 O18            1.3131     2.2502    -1.6264 O.2     
  19 C19           -7.0147     1.9876     0.3338 C.ar    
  20 C20           -8.2165     1.3222     0.5390 C.ar    
  21 C21           -7.0030     3.3711     0.2080 C.ar    
  22 C22           -8.1859     4.0796     0.2817 C.ar    
  23 C23           -9.3815     3.4134     0.4809 C.ar    
  24 C24           -9.3962     2.0371     0.6117 C.ar    
  25 C25            1.2818     5.1066    -2.0718 C.2     
  26 N26           -0.6080     5.2252    -0.9728 N.2     
  27 C27           -0.2900     6.4258    -1.3544 C.2     
  28 O28            0.8662     6.3826    -2.0314 O.3     
  29 N29            1.7957    -3.2979    -0.2511 N.am    
  30 C30           -1.0957     7.6700    -1.0822 C.3     
  31 C31           -0.4220     8.7870    -0.2827 C.3     
  32 C32           -0.6634     8.9591    -1.7838 C.3     
  33 C33           -8.2335    -0.1779     0.6817 C.3     
  34 C34            3.0463    -4.0571    -0.3267 C.3     
  35 C35            2.7496    -5.5476    -0.1500 C.3     
  36 C36            4.0558    -6.3405    -0.2289 C.3     
  37 N37            3.7717    -7.7677    -0.0597 N.am    
  38 C38            3.4815    -8.6005    -1.2295 C.3     
  39 C39            3.7773    -8.3145     1.1721 C.2     
  40 C40            3.6107    -9.8032     1.3365 C.3     
  41 O41            3.9165    -7.6085     2.1484 O.2     
  42 H42           -1.3059     2.8380    -0.0985 H       
  43 H43           -2.7687    -1.6609     0.1337 H       
  44 H44           -0.6722    -2.9328     0.0053 H       
  45 H45            1.5038     0.7158    -0.6039 H       
  46 H46           -3.4757     0.6511    -2.1112 H       
  47 H47           -4.2147    -0.5122    -0.9841 H       
  48 H48           -3.8867    -0.2155     1.4236 H       
  49 H49           -2.9150     1.1583     2.0050 H       
  50 H50           -5.3553     1.5739     2.2863 H       
  51 H51           -4.6163     2.7371     1.1591 H       
  52 H52           -4.9444     2.4404    -1.2485 H       
  53 H53           -5.9161     1.0666    -1.8300 H       
  54 H54           -6.0696     3.8920     0.0532 H       
  55 H55           -8.1775     5.1551     0.1841 H       
  56 H56          -10.3052     3.9700     0.5388 H       
  57 H57          -10.3315     1.5200     0.7671 H       
  58 H58            2.1790     4.7374    -2.5462 H       
  59 H59            0.9553    -3.7607    -0.1079 H       
  60 H60           -2.1634     7.5142    -0.9280 H       
  61 H61           -1.0467     9.3665     0.3971 H       
  62 H62            0.6039     8.6221     0.0464 H       
  63 H63            0.2037     8.9074    -2.4421 H       
  64 H64           -1.4469     9.6517    -2.0914 H       
  65 H65           -8.1168    -0.4443     1.7321 H       
  66 H66           -9.1817    -0.5674     0.3112 H       
  67 H67           -7.4142    -0.6070     0.1048 H       
  68 H68            3.5133    -3.8923    -1.2977 H       
  69 H69            3.7212    -3.7250     0.4621 H       
  70 H70            2.2826    -5.7125     0.8210 H       
  71 H71            2.0747    -5.8798    -0.9388 H       
  72 H72            4.5228    -6.1756    -1.1999 H       
  73 H73            4.7307    -6.0084     0.5599 H       
  74 H74            4.4162    -8.9528    -1.6657 H       
  75 H75            2.8773    -9.4555    -0.9259 H       
  76 H76            2.9349    -8.0130    -1.9672 H       
  77 H77            3.5944   -10.2775     0.3552 H       
  78 H78            4.4428   -10.2000     1.9181 H       
  79 H79            2.6743   -10.0089     1.8551 H       
@<TRIPOS>BOND
   1    1    2 1
   2    1   16 am
   3    1   42 1
   4    2    3 ar
   5    2    7 ar
   6    3    4 ar
   7    3    8 1
   8    4    5 ar
   9    4   43 1
  10    5    6 ar
  11    5   44 1
  12    6    7 ar
  13    6   14 1
  14    7   45 1
  15    8    9 1
  16    8   10 1
  17    9   13 1
  18    9   46 1
  19    9   47 1
  20   10   11 1
  21   10   48 1
  22   10   49 1
  23   11   12 1
  24   11   50 1
  25   11   51 1
  26   12   13 1
  27   12   19 1
  28   13   52 1
  29   13   53 1
  30   14   15 2
  31   14   29 am
  32   16   18 2
  33   16   17 1
  34   17   25 2
  35   17   26 1
  36   19   20 ar
  37   19   21 ar
  38   20   33 1
  39   20   24 ar
  40   21   22 ar
  41   21   54 1
  42   22   23 ar
  43   22   55 1
  44   23   24 ar
  45   23   56 1
  46   24   57 1
  47   25   28 1
  48   25   58 1
  49   26   27 2
  50   27   28 1
  51   27   30 1
  52   29   34 1
  53   29   59 1
  54   30   31 1
  55   30   32 1
  56   30   60 1
  57   31   32 1
  58   31   61 1
  59   31   62 1
  60   32   63 1
  61   32   64 1
  62   33   65 1
  63   33   66 1
  64   33   67 1
  65   34   35 1
  66   34   68 1
  67   34   69 1
  68   35   36 1
  69   35   70 1
  70   35   71 1
  71   36   37 1
  72   36   72 1
  73   36   73 1
  74   37   38 1
  75   37   39 am
  76   38   74 1
  77   38   75 1
  78   38   76 1
  79   39   40 1
  80   39   41 2
  81   40   77 1
  82   40   78 1
  83   40   79 1

#	End of record

