#	Name: ASD01884686
#	Creating user name:	WinNT
#	Creation time:	15. 06. 2019 19:48

#	Modifying user name:	WinNT
#	Modification time:	15. 06. 2019 19:48

#	Program:	/corina/corina34_cracker 3.40 0067  02.08.2006

@<TRIPOS>MOLECULE
ASD01884686
  45   47    0    0    0
SMALL
NO_CHARGES


@<TRIPOS>ATOM
   1 C1            -0.0164     1.3598     0.0095 C.2     
   2 C2             0.0021    -0.0041     0.0020 C.2     
   3 C3             1.2342    -0.6727    -0.0133 C.2     
   4 C4             2.3874     0.0358    -0.0205 C.2     
   5 N5             2.3670     1.3933    -0.0126 N.am    
   6 C6             1.1996     2.0643     0.0017 C.2     
   7 O7             1.1975     3.2849     0.0083 O.2     
   8 C8             1.2747    -2.1791    -0.0213 C.3     
   9 C9             3.6294     2.1366    -0.0197 C.3     
  10 C10            4.0495     2.3996    -1.4429 C.ar    
  11 C11            3.6346     3.5518    -2.0834 C.ar    
  12 C12            4.0183     3.7951    -3.3892 C.ar    
  13 C13            4.8190     2.8847    -4.0560 C.ar    
  14 C14            5.2359     1.7286    -3.4131 C.ar    
  15 C15            4.8543     1.4907    -2.1045 C.ar    
  16 F16            6.0173     0.8381    -4.0622 F       
  17 C17            1.1767    -2.6995     1.4141 C.3     
  18 C18            1.2171    -4.2060     1.4061 C.ar    
  19 F19            5.1941     3.1215    -5.3321 F       
  20 C20            2.4281    -4.8642     1.4953 C.ar    
  21 C21            0.0413    -4.9282     1.3152 C.ar    
  22 C22            0.0750    -6.3102     1.3077 C.ar    
  23 C23            1.2843    -6.9733     1.3910 C.ar    
  24 C24            2.4647    -6.2513     1.4879 C.ar    
  25 O25            3.6554    -6.9012     1.5696 O.3     
  26 C26            3.6175    -8.3296     1.5500 C.3     
  27 H27           -0.9557     1.8927     0.0169 H       
  28 H28           -0.9222    -0.5627     0.0082 H       
  29 H29            3.3339    -0.4842    -0.0324 H       
  30 H30            0.4372    -2.5620    -0.6046 H       
  31 H31            2.2112    -2.5151    -0.4665 H       
  32 H32            3.4957     3.0849     0.5008 H       
  33 H33            4.3986     1.5511     0.4839 H       
  34 H34            3.0095     4.2628    -1.5635 H       
  35 H35            3.6928     4.6955    -3.8889 H       
  36 H36            5.1785     0.5910    -1.6026 H       
  37 H37            2.0141    -2.3167     1.9974 H       
  38 H38            0.2401    -2.3636     1.8593 H       
  39 H39            3.3458    -4.2998     1.5704 H       
  40 H40           -0.9050    -4.4117     1.2504 H       
  41 H41           -0.8447    -6.8720     1.2369 H       
  42 H42            1.3101    -8.0530     1.3854 H       
  43 H43            3.0291    -8.6890     2.3942 H       
  44 H44            3.1622    -8.6682     0.6194 H       
  45 H45            4.6323    -8.7209     1.6215 H       
@<TRIPOS>BOND
   1    1    2 2
   2    1    6 1
   3    1   27 1
   4    2    3 1
   5    2   28 1
   6    3    4 2
   7    3    8 1
   8    4    5 1
   9    4   29 1
  10    5    6 am
  11    5    9 1
  12    6    7 2
  13    8   17 1
  14    8   30 1
  15    8   31 1
  16    9   10 1
  17    9   32 1
  18    9   33 1
  19   10   11 ar
  20   10   15 ar
  21   11   12 ar
  22   11   34 1
  23   12   13 ar
  24   12   35 1
  25   13   14 ar
  26   13   19 1
  27   14   15 ar
  28   14   16 1
  29   15   36 1
  30   17   18 1
  31   17   37 1
  32   17   38 1
  33   18   20 ar
  34   18   21 ar
  35   20   24 ar
  36   20   39 1
  37   21   22 ar
  38   21   40 1
  39   22   23 ar
  40   22   41 1
  41   23   24 ar
  42   23   42 1
  43   24   25 1
  44   25   26 1
  45   26   43 1
  46   26   44 1
  47   26   45 1

#	End of record

