#	Name: ASD01912291
#	Creating user name:	WinNT
#	Creation time:	15. 06. 2019 19:59

#	Modifying user name:	WinNT
#	Modification time:	15. 06. 2019 19:59

#	Program:	/corina/corina34_cracker 3.40 0067  02.08.2006

@<TRIPOS>MOLECULE
ASD01912291
  46   48    0    0    0
SMALL
NO_CHARGES


@<TRIPOS>ATOM
   1 C1             0.0021    -0.0041     0.0020 C.1     
   2 C2            -0.0173     1.4278     0.0099 C.ar    
   3 C3             1.1805     2.1454     0.0023 C.ar    
   4 C4             1.1543     3.5256     0.0095 C.ar    
   5 C5            -0.0566     4.1977     0.0246 C.ar    
   6 C6            -1.2462     3.4920     0.0327 C.ar    
   7 C7            -1.2341     2.1124     0.0193 C.ar    
   8 N8             0.0175    -1.1399    -0.0042 N.1     
   9 S9            -0.0817     5.9595     0.0343 S.o2    
  10 O10            0.8052     6.3791    -0.9935 O.2     
  11 O11           -1.4496     6.3410     0.0841 O.2     
  12 N12            0.5934     6.4515     1.4642 N.am    
  13 C13            2.0391     6.6915     1.5592 C.3     
  14 C14            2.2705     8.1365     2.0191 C.3     
  15 C15            1.4059     8.3962     3.2332 C.2     
  16 C16           -0.0741     8.0969     3.1397 C.3     
  17 C17           -0.2477     6.6587     2.6501 C.3     
  18 C18            1.9352     8.8765     4.3576 C.2     
  19 C19            1.1008     9.1159     5.4965 C.1     
  20 C20            0.4168     9.3122     6.4302 C.1     
  21 C21           -0.4176     9.5516     7.5691 C.ar    
  22 C22            0.1428    10.0556     8.7465 C.ar    
  23 C23           -0.6769    10.2811     9.8369 C.ar    
  24 C24           -2.0311     9.9967     9.7194 C.ar    
  25 C25           -2.5203     9.4997     8.5251 C.ar    
  26 N26           -1.7212     9.2980     7.4976 N.ar    
  27 C27           -3.9895     9.1905     8.3954 C.3     
  28 Cl28           2.6418     4.4204     0.0001 Cl      
  29 H29            2.1251     1.6219    -0.0088 H       
  30 H30           -2.1870     4.0223     0.0452 H       
  31 H31           -2.1639     1.5631     0.0211 H       
  32 H32            2.4769     6.0034     2.2823 H       
  33 H33            2.4995     6.5406     0.5829 H       
  34 H34            3.3198     8.2752     2.2793 H       
  35 H35            1.9962     8.8245     1.2193 H       
  36 H36           -0.5342     8.2100     4.1213 H       
  37 H37           -0.5431     8.7815     2.4330 H       
  38 H38           -1.2925     6.4861     2.3918 H       
  39 H39            0.0550     5.9686     3.4378 H       
  40 H40            2.9935     9.0853     4.4101 H       
  41 H41            1.2007    10.2655     8.8036 H       
  42 H42           -0.2728    10.6695    10.7601 H       
  43 H43           -2.6967    10.1619    10.5537 H       
  44 H44           -4.5165    10.0743     8.0361 H       
  45 H45           -4.1276     8.3726     7.6882 H       
  46 H46           -4.3870     8.9008     9.3681 H       
@<TRIPOS>BOND
   1    1    2 1
   2    1    8 3
   3    2    3 ar
   4    2    7 ar
   5    3    4 ar
   6    3   29 1
   7    4    5 ar
   8    4   28 1
   9    5    6 ar
  10    5    9 1
  11    6    7 ar
  12    6   30 1
  13    7   31 1
  14    9   10 2
  15    9   11 2
  16    9   12 am
  17   12   13 1
  18   12   17 1
  19   13   14 1
  20   13   32 1
  21   13   33 1
  22   14   15 1
  23   14   34 1
  24   14   35 1
  25   15   16 1
  26   15   18 2
  27   16   17 1
  28   16   36 1
  29   16   37 1
  30   17   38 1
  31   17   39 1
  32   18   19 1
  33   18   40 1
  34   19   20 3
  35   20   21 1
  36   21   22 ar
  37   21   26 ar
  38   22   23 ar
  39   22   41 1
  40   23   24 ar
  41   23   42 1
  42   24   25 ar
  43   24   43 1
  44   25   26 ar
  45   25   27 1
  46   27   44 1
  47   27   45 1
  48   27   46 1

#	End of record

