#	Name: ASD05430206
#	Creating user name:	WinNT
#	Creation time:	15. 06. 2019 21:00

#	Modifying user name:	WinNT
#	Modification time:	15. 06. 2019 21:00

#	Program:	/corina/corina34_cracker 3.40 0067  02.08.2006

@<TRIPOS>MOLECULE
ASD05430206
  73   79    0    0    0
SMALL
NO_CHARGES


@<TRIPOS>ATOM
   1 C1            -0.1035     1.0966    -0.3879 C.ar    
   2 C2            -0.1864    -0.1311     0.2712 C.ar    
   3 C3             0.9127    -0.6353     0.9544 C.ar    
   4 C4             2.0920     0.0746     0.9845 C.ar    
   5 C5             2.1812     1.3039     0.3262 C.ar    
   6 C6             1.0682     1.8109    -0.3630 C.ar    
   7 C7             4.7285    -0.0754     0.0514 C.3     
   8 C8             4.6196     1.4205     0.3092 C.2     
   9 C9             3.4399     2.0666     0.3561 C.2     
  10 C10            5.8225    -0.3107    -0.9877 C.3     
  11 C11            7.1962     0.2318    -0.6104 C.3     
  12 N12            7.0879     1.5639    -0.0324 N.pl3   
  13 C13            5.9169     2.1072     0.5047 C.2     
  14 N14           -1.3832    -0.8573     0.2439 N.pl3   
  15 C15           -2.6230    -0.3825     0.5331 C.2     
  16 C16           -1.5265    -2.1806    -0.0856 C.2     
  17 C17           -2.8378    -2.4684     0.0176 C.2     
  18 N18           -3.4827    -1.3548     0.3961 N.2     
  19 C19           -3.4719    -3.8092    -0.2495 C.3     
  20 C20            8.1140     2.6014     0.1065 C.3     
  21 O21            7.5637     3.4767     1.1130 O.3     
  22 N22            6.1700     3.1982     1.1433 N.2     
  23 C23            9.4351     1.9941     0.5826 C.3     
  24 C24            9.2550     1.4204     1.9895 C.3     
  25 C25            8.3040     3.3391    -1.1938 C.ar    
  26 C26            9.2091     4.3818    -1.2611 C.ar    
  27 N27            7.6089     2.9785    -2.2545 N.ar    
  28 C28            7.7413     3.5941    -3.4131 C.ar    
  29 C29            8.6240     4.6508    -3.5558 C.ar    
  30 C30            9.3772     5.0545    -2.4610 C.ar    
  31 F31            8.7551     5.2774    -4.7455 F       
  32 S32           10.8536     0.8299     2.6110 S.o2    
  33 O33           11.2742    -0.2656     1.8098 O.2     
  34 O34           11.7184     1.9464     2.7688 O.2     
  35 C35           10.4092     0.2063     4.2554 C.3     
  36 C36            5.8626    -1.7589    -1.5046 C.3     
  37 O37            6.0111    -1.1673    -2.8114 O.3     
  38 C38            5.3908     0.0725    -2.4139 C.3     
  39 C39            0.4953     2.9249    -1.1980 C.3     
  40 C40           -0.8032     2.1308    -1.2294 C.3     
  41 C41           11.6581    -0.3442     4.9468 C.3     
  42 H42            0.8421    -1.5854     1.4630 H       
  43 H43            2.9463    -0.3177     1.5162 H       
  44 H44            4.9868    -0.5887     0.9776 H       
  45 H45            3.7778    -0.4520    -0.3262 H       
  46 H46            3.4168     3.1447     0.4158 H       
  47 H47            7.6587    -0.4372     0.1153 H       
  48 H48            7.8206     0.2780    -1.5027 H       
  49 H49           -2.8576     0.6297     0.8277 H       
  50 H50           -0.7388    -2.8613    -0.3731 H       
  51 H51           -3.4901    -4.3923     0.6712 H       
  52 H52           -4.4909    -3.6642    -0.6081 H       
  53 H53           -2.8931    -4.3408    -1.0049 H       
  54 H54            9.7356     1.1981    -0.0987 H       
  55 H55           10.2043     2.7663     0.6009 H       
  56 H56            8.8717     2.1964     2.6521 H       
  57 H57            8.5493     0.5903     1.9557 H       
  58 H58            9.7779     4.6690    -0.3891 H       
  59 H59            7.1548     3.2701    -4.2602 H       
  60 H60           10.0741     5.8756    -2.5418 H       
  61 H61            9.9920     1.0180     4.8514 H       
  62 H62            9.6695    -0.5881     4.1550 H       
  63 H63            6.7354    -2.3216    -1.1733 H       
  64 H64            4.9269    -2.3015    -1.3697 H       
  65 H65            4.3105     0.0913    -2.5577 H       
  66 H66            5.8901     0.9600    -2.8025 H       
  67 H67            0.4176     3.8732    -0.6663 H       
  68 H68            0.9665     3.0242    -2.1758 H       
  69 H69           -1.0744     1.7769    -2.2240 H       
  70 H70           -1.6284     2.6232    -0.7148 H       
  71 H71           11.3910    -0.7190     5.9349 H       
  72 H72           12.0753    -1.1560     4.3509 H       
  73 H73           12.3978     0.4501     5.0472 H       
@<TRIPOS>BOND
   1    1    2 ar
   2    1    6 ar
   3    1   40 1
   4    2    3 ar
   5    2   14 1
   6    3    4 ar
   7    3   42 1
   8    4    5 ar
   9    4   43 1
  10    5    6 ar
  11    5    9 1
  12    6   39 1
  13    7    8 1
  14    7   10 1
  15    7   44 1
  16    7   45 1
  17    8    9 2
  18    8   13 1
  19    9   46 1
  20   10   11 1
  21   10   36 1
  22   10   38 1
  23   11   12 1
  24   11   47 1
  25   11   48 1
  26   12   13 1
  27   12   20 1
  28   13   22 2
  29   14   15 1
  30   14   16 1
  31   15   18 2
  32   15   49 1
  33   16   17 2
  34   16   50 1
  35   17   18 1
  36   17   19 1
  37   19   51 1
  38   19   52 1
  39   19   53 1
  40   20   21 1
  41   20   23 1
  42   20   25 1
  43   21   22 1
  44   23   24 1
  45   23   54 1
  46   23   55 1
  47   24   32 1
  48   24   56 1
  49   24   57 1
  50   25   26 ar
  51   25   27 ar
  52   26   30 ar
  53   26   58 1
  54   27   28 ar
  55   28   29 ar
  56   28   59 1
  57   29   30 ar
  58   29   31 1
  59   30   60 1
  60   32   33 2
  61   32   34 2
  62   32   35 1
  63   35   41 1
  64   35   61 1
  65   35   62 1
  66   36   37 1
  67   36   63 1
  68   36   64 1
  69   37   38 1
  70   38   65 1
  71   38   66 1
  72   39   40 1
  73   39   67 1
  74   39   68 1
  75   40   69 1
  76   40   70 1
  77   41   71 1
  78   41   72 1
  79   41   73 1

#	End of record

