#	Name: ASD00310275
#	Creating user name:	WinNT
#	Creation time:	15. 06. 2019 18:34

#	Modifying user name:	WinNT
#	Modification time:	15. 06. 2019 18:34

#	Program:	/corina/corina34_cracker 3.40 0067  02.08.2006

@<TRIPOS>MOLECULE
ASD00310275
  27   28    0    0    0
SMALL
NO_CHARGES


@<TRIPOS>ATOM
   1 N1            -0.1197     1.3803     0.0431 N.am    
   2 C2             0.0508    -0.0800     0.0086 C.3     
   3 C3             1.4312     0.1203     0.6492 C.3     
   4 C4             1.3448     1.4981    -0.0218 C.3     
   5 S5            -1.3983     2.4302     0.1158 S.o2    
   6 O6            -2.4679     1.6451     0.6246 O.2     
   7 O7            -0.8967     3.5436     0.8422 O.2     
   8 C8            -1.7089     2.8854    -1.6125 C.3     
   9 C9            -0.9200    -0.8187     0.8935 C.ar    
  10 C10           -1.5918    -1.9256     0.4093 C.ar    
  11 C11           -2.4819    -2.6036     1.2207 C.ar    
  12 C12           -2.7005    -2.1744     2.5174 C.ar    
  13 C13           -2.0280    -1.0667     3.0015 C.ar    
  14 C14           -1.1342    -0.3925     2.1910 C.ar    
  15 Br15          -3.9186    -3.1012     3.6278 Br      
  16 H16            0.0959    -0.4880    -1.0012 H       
  17 H17            1.4180     0.1521     1.7386 H       
  18 H18            2.2099    -0.5260     0.2441 H       
  19 H19            1.7346     1.5105    -1.0396 H       
  20 H20            1.7430     2.3058     0.5924 H       
  21 H21           -1.8621     1.9828    -2.2041 H       
  22 H22           -2.5990     3.5121    -1.6688 H       
  23 H23           -0.8524     3.4348    -2.0031 H       
  24 H24           -1.4214    -2.2604    -0.6032 H       
  25 H25           -3.0070    -3.4682     0.8423 H       
  26 H26           -2.1986    -0.7310     4.0137 H       
  27 H27           -0.6060     0.4699     2.5702 H       
@<TRIPOS>BOND
   1    1    2 1
   2    1    4 1
   3    1    5 am
   4    2    3 1
   5    2    9 1
   6    2   16 1
   7    3    4 1
   8    3   17 1
   9    3   18 1
  10    4   19 1
  11    4   20 1
  12    5    6 2
  13    5    7 2
  14    5    8 1
  15    8   21 1
  16    8   22 1
  17    8   23 1
  18    9   10 ar
  19    9   14 ar
  20   10   11 ar
  21   10   24 1
  22   11   12 ar
  23   11   25 1
  24   12   13 ar
  25   12   15 1
  26   13   14 ar
  27   13   26 1
  28   14   27 1

#	End of record

