#	Name: ASD00450010
#	Creating user name:	WinNT
#	Creation time:	15. 06. 2019 18:35

#	Modifying user name:	WinNT
#	Modification time:	15. 06. 2019 18:35

#	Program:	/corina/corina34_cracker 3.40 0067  02.08.2006

@<TRIPOS>MOLECULE
ASD00450010
  59   63    0    0    0
SMALL
NO_CHARGES


@<TRIPOS>ATOM
   1 C1             0.1135     1.4700    -0.0660 C.2     
   2 N2             0.1747     0.3758    -0.8705 N.am    
   3 C3             1.3522    -0.2561    -1.0852 C.2     
   4 C4             2.5441     0.2885    -0.4180 C.ar    
   5 C5             2.3842     1.4296     0.3994 C.ar    
   6 N6             1.1480     1.9727     0.5356 N.2     
   7 C7             3.8027    -0.2876    -0.5727 C.ar    
   8 C8             4.8886     0.2697     0.0814 C.ar    
   9 C9             4.7248     1.3962     0.8876 C.ar    
  10 C10            3.4966     1.9712     1.0476 C.ar    
  11 N11            6.1565    -0.3003    -0.0668 N.pl3   
  12 C12            7.2783     0.5195    -0.2112 C.ar    
  13 C13            7.1218     1.8889    -0.3731 C.ar    
  14 C14            8.2390     2.6997    -0.5158 C.ar    
  15 C15            9.5098     2.1386    -0.4960 C.ar    
  16 C16            9.6624     0.7747    -0.3346 C.ar    
  17 C17            8.5529    -0.0347    -0.1871 C.ar    
  18 C18            8.7240    -1.5216    -0.0108 C.3     
  19 N19            8.0857     4.0800    -0.6796 N.am    
  20 C20            8.9732     4.9275    -0.1223 C.2     
  21 C21            8.7788     6.3794    -0.2432 C.2     
  22 O22            9.9353     4.4906     0.4810 O.2     
  23 N23            7.7625     7.0005    -0.8798 N.2     
  24 C24            7.9140     8.2892    -0.7834 C.2     
  25 N25            9.0417     8.5629    -0.0760 N.pl3   
  26 C26            9.6030     7.3666     0.2813 C.2     
  27 C27           10.8408     7.1660     1.0605 C.ar    
  28 C28           11.0733     7.9200     2.2127 C.ar    
  29 C29           12.2309     7.7289     2.9379 C.ar    
  30 C30           13.1633     6.7909     2.5259 C.ar    
  31 C31           12.9388     6.0381     1.3810 C.ar    
  32 C32           11.7808     6.2173     0.6511 C.ar    
  33 C33           -1.0448    -0.1240    -1.5103 C.3     
  34 O34            1.4217    -1.2372    -1.8024 O.2     
  35 F35           13.8522     5.1254     0.9838 F       
  36 F36           14.2953     6.6082     3.2404 F       
  37 C37            6.9825     9.3200    -1.3673 C.3     
  38 F38            5.7749     8.7094    -1.7224 F       
  39 F39            6.7388    10.3189    -0.4186 F       
  40 F40            7.5692     9.8886    -2.5029 F       
  41 H41           -0.8444     1.9481     0.0765 H       
  42 H42            3.9303    -1.1602    -1.1962 H       
  43 H43            5.5809     1.8194     1.3921 H       
  44 H44            3.3854     2.8434     1.6748 H       
  45 H45            6.2572    -1.2651    -0.0693 H       
  46 H46            6.1329     2.3226    -0.3885 H       
  47 H47           10.3796     2.7692    -0.6074 H       
  48 H48           10.6514     0.3412    -0.3196 H       
  49 H49            8.8090    -1.7542     1.0507 H       
  50 H50            7.8600    -2.0387    -0.4281 H       
  51 H51            9.6268    -1.8472    -0.5275 H       
  52 H52            7.3407     4.4275    -1.1945 H       
  53 H53            9.3840     9.4445     0.1396 H       
  54 H54           10.3478     8.6520     2.5354 H       
  55 H55           12.4110     8.3122     3.8289 H       
  56 H56           11.6061     5.6315    -0.2392 H       
  57 H57           -1.8885     0.5043    -1.2249 H       
  58 H58           -0.9232    -0.0992    -2.5932 H       
  59 H59           -1.2298    -1.1489    -1.1889 H       
@<TRIPOS>BOND
   1    1    2 1
   2    1    6 2
   3    1   41 1
   4    2    3 am
   5    2   33 1
   6    3    4 1
   7    3   34 2
   8    4    5 ar
   9    4    7 ar
  10    5    6 1
  11    5   10 ar
  12    7    8 ar
  13    7   42 1
  14    8    9 ar
  15    8   11 1
  16    9   10 ar
  17    9   43 1
  18   10   44 1
  19   11   12 1
  20   11   45 1
  21   12   13 ar
  22   12   17 ar
  23   13   14 ar
  24   13   46 1
  25   14   15 ar
  26   14   19 1
  27   15   16 ar
  28   15   47 1
  29   16   17 ar
  30   16   48 1
  31   17   18 1
  32   18   49 1
  33   18   50 1
  34   18   51 1
  35   19   20 am
  36   19   52 1
  37   20   21 1
  38   20   22 2
  39   21   23 1
  40   21   26 2
  41   23   24 2
  42   24   25 1
  43   24   37 1
  44   25   26 1
  45   25   53 1
  46   26   27 1
  47   27   28 ar
  48   27   32 ar
  49   28   29 ar
  50   28   54 1
  51   29   30 ar
  52   29   55 1
  53   30   31 ar
  54   30   36 1
  55   31   32 ar
  56   31   35 1
  57   32   56 1
  58   33   57 1
  59   33   58 1
  60   33   59 1
  61   37   38 1
  62   37   39 1
  63   37   40 1

#	End of record

