#	Name: ASD02560117
#	Creating user name:	WinNT
#	Creation time:	15. 06. 2019 20:24

#	Modifying user name:	WinNT
#	Modification time:	15. 06. 2019 20:24

#	Program:	/corina/corina34_cracker 3.40 0067  02.08.2006

@<TRIPOS>MOLECULE
ASD02560117
  53   56    0    0    0
SMALL
NO_CHARGES


@<TRIPOS>ATOM
   1 N1             0.0309     1.3301     0.4432 N.2     
   2 N2            -0.2087     0.1294     0.2818 N.2     
   3 C3             1.4489     1.6261     0.2015 C.3     
   4 N4             2.1239     0.3043     0.2432 N.3     
   5 C5             1.0032    -0.6077    -0.0988 C.3     
   6 S6             1.1301    -2.1481     0.8508 S.3     
   7 C7             1.0487    -1.5755     2.5701 C.3     
   8 C8             1.1428    -2.7587     3.4987 C.2     
   9 O9             1.2539    -3.8780     3.0452 O.2     
  10 N10            1.1036    -2.5730     4.8330 N.am    
  11 Br11           1.6831     2.4591    -1.5639 Br      
  12 C12            3.1365     0.2305    -0.7107 C.ar    
  13 C13            1.1230    -3.6722     5.6908 C.ar    
  14 C14            0.4641    -3.6090     6.9158 C.ar    
  15 C15            0.4814    -4.6928     7.7651 C.ar    
  16 C16            1.1617    -5.8573     7.3957 C.ar    
  17 C17            1.8219    -5.9166     6.1651 C.ar    
  18 C18            1.7958    -4.8313     5.3183 C.ar    
  19 Br19          -0.4549    -2.0332     7.4140 Br      
  20 C20            1.1831    -7.0199     8.3026 C.2     
  21 O21            0.6090    -6.9667     9.3722 O.2     
  22 O22            1.8391    -8.1413     7.9451 O.3     
  23 C23            4.2222     1.1314    -0.6680 C.ar    
  24 C24            3.0903    -0.7270    -1.7018 C.ar    
  25 C25            4.0968    -0.8094    -2.6589 C.ar    
  26 C26            5.1531     0.0499    -2.6442 C.ar    
  27 C27            5.2407     1.0373    -1.6483 C.ar    
  28 C28            6.3192     1.9380    -1.6089 C.ar    
  29 C29            6.3725     2.8825    -0.6304 C.ar    
  30 C30            5.3724     2.9714     0.3358 C.ar    
  31 C31            4.3113     2.1181     0.3262 C.ar    
  32 C32            6.2302    -0.0614    -3.6924 C.3     
  33 C33            7.3825    -0.9102    -3.1515 C.3     
  34 H34            1.8396     2.2767     0.9840 H       
  35 H35            0.9988    -0.8192    -1.1681 H       
  36 H36            1.8763    -0.8935     2.7655 H       
  37 H37            0.1041    -1.0575     2.7362 H       
  38 H38            1.0619    -1.6747     5.1966 H       
  39 H39           -0.0294    -4.6434     8.7154 H       
  40 H40            2.3486    -6.8144     5.8770 H       
  41 H41            2.3055    -4.8769     4.3672 H       
  42 H42            1.8251    -8.8770     8.5724 H       
  43 H43            2.2635    -1.4211    -1.7354 H       
  44 H44            4.0396    -1.5676    -3.4259 H       
  45 H45            7.1018     1.8806    -2.3510 H       
  46 H46            7.2024     3.5731    -0.6022 H       
  47 H47            5.4382     3.7300     1.1016 H       
  48 H48            3.5434     2.1985     1.0813 H       
  49 H49            5.8204    -0.5322    -4.5859 H       
  50 H50            6.5981     0.9338    -3.9422 H       
  51 H51            7.7923    -0.4394    -2.2579 H       
  52 H52            7.0145    -1.9053    -2.9016 H       
  53 H53            8.1615    -0.9907    -3.9096 H       
@<TRIPOS>BOND
   1    1    2 2
   2    1    3 1
   3    2    5 1
   4    3    4 1
   5    3   11 1
   6    3   34 1
   7    4    5 1
   8    4   12 1
   9    5    6 1
  10    5   35 1
  11    6    7 1
  12    7    8 1
  13    7   36 1
  14    7   37 1
  15    8    9 2
  16    8   10 am
  17   10   13 1
  18   10   38 1
  19   12   23 ar
  20   12   24 ar
  21   13   14 ar
  22   13   18 ar
  23   14   15 ar
  24   14   19 1
  25   15   16 ar
  26   15   39 1
  27   16   17 ar
  28   16   20 1
  29   17   18 ar
  30   17   40 1
  31   18   41 1
  32   20   21 2
  33   20   22 1
  34   22   42 1
  35   23   27 ar
  36   23   31 ar
  37   24   25 ar
  38   24   43 1
  39   25   26 ar
  40   25   44 1
  41   26   27 ar
  42   26   32 1
  43   27   28 ar
  44   28   29 ar
  45   28   45 1
  46   29   30 ar
  47   29   46 1
  48   30   31 ar
  49   30   47 1
  50   31   48 1
  51   32   33 1
  52   32   49 1
  53   32   50 1
  54   33   51 1
  55   33   52 1
  56   33   53 1

#	End of record

