#	Name: ASD03090088
#	Creating user name:	WinNT
#	Creation time:	15. 06. 2019 20:28

#	Modifying user name:	WinNT
#	Modification time:	15. 06. 2019 20:28

#	Program:	/corina/corina34_cracker 3.40 0067  02.08.2006

@<TRIPOS>MOLECULE
ASD03090088
  41   42    0    0    0
SMALL
NO_CHARGES


@<TRIPOS>ATOM
   1 C1             0.0174     1.5107     0.0292 C.2     
   2 C2             0.0573     0.0365     0.0398 C.ar    
   3 C3             1.2860    -0.6310     0.0273 C.ar    
   4 C4             1.3201    -2.0015     0.0376 C.ar    
   5 C5             0.1324    -2.7289     0.0606 C.ar    
   6 C6            -1.0930    -2.0667     0.0732 C.ar    
   7 C7            -1.1332    -0.6963     0.0683 C.ar    
   8 O8             1.0535     2.1470     0.0096 O.2     
   9 N9            -1.1676     2.1528     0.0357 N.am    
  10 S10            0.1802    -4.4903     0.0733 S.3     
  11 C11           -1.5754    -4.9459     0.1026 C.3     
  12 F12           -2.2093    -4.4334    -1.0344 F       
  13 F13           -1.6953    -6.3397     0.1150 F       
  14 F14           -2.1757    -4.4160     1.2499 F       
  15 C15           -1.2074     3.6172     0.0252 C.3     
  16 C16           -2.6412     4.0809     0.0354 C.ar    
  17 C17           -3.2862     4.3021     1.2366 C.ar    
  18 C18           -4.6077     4.7294     1.2451 C.ar    
  19 C19           -5.2764     4.9330     0.0444 C.ar    
  20 C20           -4.6256     4.7100    -1.1529 C.ar    
  21 C21           -3.3079     4.2899    -1.1578 C.ar    
  22 N22           -5.2631     4.9536     2.4580 N.pl3   
  23 C23           -4.6022     4.6158     3.7210 C.3     
  24 C24           -6.6114     5.5265     2.4671 C.3     
  25 H25            2.2072    -0.0675     0.0091 H       
  26 H26            2.2687    -2.5176     0.0276 H       
  27 H27           -2.0123    -2.6333     0.0906 H       
  28 H28           -2.0835    -0.1834     0.0822 H       
  29 H29           -1.9942     1.6453     0.0474 H       
  30 H30           -0.6951     4.0009     0.9075 H       
  31 H31           -0.7121     3.9877    -0.8723 H       
  32 H32           -2.7636     4.1425     2.1682 H       
  33 H33           -6.3041     5.2649     0.0475 H       
  34 H34           -5.1448     4.8681    -2.0866 H       
  35 H35           -2.7997     4.1208    -2.0956 H       
  36 H36           -4.0365     5.4769     4.0768 H       
  37 H37           -5.3532     4.3430     4.4624 H       
  38 H38           -3.9252     3.7762     3.5637 H       
  39 H39           -6.8977     5.7979     1.4510 H       
  40 H40           -7.3154     4.7925     2.8591 H       
  41 H41           -6.6242     6.4153     3.0979 H       
@<TRIPOS>BOND
   1    1    2 1
   2    1    8 2
   3    1    9 am
   4    2    3 ar
   5    2    7 ar
   6    3    4 ar
   7    3   25 1
   8    4    5 ar
   9    4   26 1
  10    5    6 ar
  11    5   10 1
  12    6    7 ar
  13    6   27 1
  14    7   28 1
  15    9   15 1
  16    9   29 1
  17   10   11 1
  18   11   12 1
  19   11   13 1
  20   11   14 1
  21   15   16 1
  22   15   30 1
  23   15   31 1
  24   16   17 ar
  25   16   21 ar
  26   17   18 ar
  27   17   32 1
  28   18   19 ar
  29   18   22 1
  30   19   20 ar
  31   19   33 1
  32   20   21 ar
  33   20   34 1
  34   21   35 1
  35   22   23 1
  36   22   24 1
  37   23   36 1
  38   23   37 1
  39   23   38 1
  40   24   39 1
  41   24   40 1
  42   24   41 1

#	End of record

