#	Name: ASD00311035
#	Creating user name:	WinNT
#	Creation time:	15. 06. 2019 18:34

#	Modifying user name:	WinNT
#	Modification time:	15. 06. 2019 18:34

#	Program:	/corina/corina34_cracker 3.40 0067  02.08.2006

@<TRIPOS>MOLECULE
ASD00311035
  33   35    0    0    0
SMALL
NO_CHARGES


@<TRIPOS>ATOM
   1 C1            -0.0158     1.3141     0.0093 C.ar    
   2 N2             0.0021    -0.0041     0.0020 N.ar    
   3 C3             1.1287    -0.6886    -0.0124 C.ar    
   4 C4             2.3502    -0.0441    -0.0201 C.ar    
   5 C5             2.3790     1.3544    -0.0129 C.ar    
   6 C6             1.1595     2.0395     0.0019 C.ar    
   7 C7             3.6717     3.5535    -0.0125 C.2     
   8 C8             3.6652     2.0895    -0.0202 C.2     
   9 C9             6.0808     6.3784    -0.0185 C.ar    
  10 C10            4.8503     5.6956    -0.0113 C.ar    
  11 C11            4.8438     4.2233    -0.0192 C.2     
  12 C12            6.0989     7.7409    -0.0109 C.ar    
  13 C13            4.8669     8.4258     0.0040 C.ar    
  14 C14            3.6590     7.6792     0.0106 C.ar    
  15 N15            3.7001     6.3471     0.0027 N.ar    
  16 O16            4.7160     1.4767    -0.0327 O.2     
  17 C17            2.4278     8.3631     0.0256 C.ar    
  18 C18            2.4063     9.7218     0.0335 C.ar    
  19 C19            3.5939    10.4614     0.0265 C.ar    
  20 C20            4.8161     9.8266     0.0129 C.ar    
  21 O21            3.5410    11.8187     0.0343 O.3     
  22 H22           -0.9625     1.8339     0.0165 H       
  23 H23            1.0960    -1.7681    -0.0179 H       
  24 H24            3.2692    -0.6113    -0.0312 H       
  25 H25            1.1373     3.1192     0.0076 H       
  26 H26            2.7388     4.0975    -0.0014 H       
  27 H27            7.0078     5.8243    -0.0255 H       
  28 H28            5.7766     3.6793    -0.0302 H       
  29 H29            7.0334     8.2823    -0.0159 H       
  30 H30            1.5014     7.8080     0.0304 H       
  31 H31            1.4580    10.2385     0.0450 H       
  32 H32            5.7288    10.4040     0.0082 H       
  33 H33            3.5338    12.2070     0.9199 H       
@<TRIPOS>BOND
   1    1    2 ar
   2    1    6 ar
   3    1   22 1
   4    2    3 ar
   5    3    4 ar
   6    3   23 1
   7    4    5 ar
   8    4   24 1
   9    5    6 ar
  10    5    8 1
  11    6   25 1
  12    7    8 1
  13    7   11 2
  14    7   26 1
  15    8   16 2
  16    9   10 ar
  17    9   12 ar
  18    9   27 1
  19   10   11 1
  20   10   15 ar
  21   11   28 1
  22   12   13 ar
  23   12   29 1
  24   13   14 ar
  25   13   20 ar
  26   14   15 ar
  27   14   17 ar
  28   17   18 ar
  29   17   30 1
  30   18   19 ar
  31   18   31 1
  32   19   20 ar
  33   19   21 1
  34   20   32 1
  35   21   33 1

#	End of record

