#	Name: ASD04880200
#	Creating user name:	WinNT
#	Creation time:	15. 06. 2019 20:53

#	Modifying user name:	WinNT
#	Modification time:	15. 06. 2019 20:53

#	Program:	/corina/corina34_cracker 3.40 0067  02.08.2006

@<TRIPOS>MOLECULE
ASD04880200
  27   29    0    0    0
SMALL
NO_CHARGES


@<TRIPOS>ATOM
   1 C1            -0.0693     1.3021     1.0773 C.3     
   2 C2            -0.0215    -0.1136     0.4734 C.3     
   3 N3             1.4089    -0.4476     0.4338 N.am    
   4 N4             2.1458     0.6189     0.9448 N.am    
   5 C5             1.3801     1.6492     1.3314 C.2     
   6 O6             1.7840     2.6893     1.8066 O.2     
   7 C7             1.9268    -1.6043    -0.0246 C.2     
   8 O8             1.1890    -2.5159    -0.3453 O.2     
   9 C9             3.3899    -1.7645    -0.1372 C.ar    
  10 C10            4.2027    -0.6473    -0.3417 C.ar    
  11 C11            5.5684    -0.7987    -0.4467 C.ar    
  12 C12            6.1411    -2.0596    -0.3503 C.ar    
  13 C13            5.3342    -3.1801    -0.1458 C.ar    
  14 C14            3.9657    -3.0337    -0.0336 C.ar    
  15 O15            7.4406    -2.4667    -0.4199 O.3     
  16 C16            7.4618    -3.7880     0.1515 C.3     
  17 O17            6.1323    -4.2863    -0.0874 O.3     
  18 H18           -0.5108     2.0036     0.3696 H       
  19 H19           -0.6299     1.2988     2.0121 H       
  20 H20           -0.5591    -0.8170     1.1092 H       
  21 H21           -0.4400    -0.1123    -0.5331 H       
  22 H22            3.1133     0.6161     1.0138 H       
  23 H23            3.7609     0.3352    -0.4180 H       
  24 H24            6.1953     0.0664    -0.6049 H       
  25 H25            3.3404    -3.8999     0.1249 H       
  26 H26            8.2006    -4.4112    -0.3524 H       
  27 H27            7.6660    -3.7393     1.2211 H       
@<TRIPOS>BOND
   1    1    2 1
   2    1    5 1
   3    1   18 1
   4    1   19 1
   5    2    3 1
   6    2   20 1
   7    2   21 1
   8    3    4 1
   9    3    7 am
  10    4    5 am
  11    4   22 1
  12    5    6 2
  13    7    8 2
  14    7    9 1
  15    9   10 ar
  16    9   14 ar
  17   10   11 ar
  18   10   23 1
  19   11   12 ar
  20   11   24 1
  21   12   13 ar
  22   12   15 1
  23   13   14 ar
  24   13   17 1
  25   14   25 1
  26   15   16 1
  27   16   17 1
  28   16   26 1
  29   16   27 1

#	End of record

