#	Name: ASD02508057
#	Creating user name:	WinNT
#	Creation time:	15. 06. 2019 20:23

#	Modifying user name:	WinNT
#	Modification time:	15. 06. 2019 20:23

#	Program:	/corina/corina34_cracker 3.40 0067  02.08.2006

@<TRIPOS>MOLECULE
ASD02508057
  37   39    0    0    0
SMALL
NO_CHARGES


@<TRIPOS>ATOM
   1 C1             0.1929     1.2936    -0.9761 C.ar    
   2 C2             0.6840     0.3551    -1.8710 C.ar    
   3 C3             0.8781     1.5573     0.2091 C.ar    
   4 C4             2.0534     0.8787     0.4916 C.ar    
   5 C5             2.5424    -0.0589    -0.4049 C.ar    
   6 C6             1.8557    -0.3203    -1.5871 C.ar    
   7 N7            -0.9311     2.1232    -0.9797 N.am    
   8 C8            -0.9082     2.8401     0.1613 C.2     
   9 O9             0.1760     2.5051     0.8781 O.3     
  10 N10            3.7298    -0.7450    -0.1202 N.am    
  11 S11            4.9628     0.0269     0.6711 S.o2    
  12 C12            5.4453     1.3972    -0.3259 C.ar    
  13 C13            5.9886     1.1829    -1.5844 C.ar    
  14 O14           -1.7389     3.6655     0.4888 O.2     
  15 O15            4.3998     0.5717     1.8566 O.2     
  16 O16            6.0624    -0.8731     0.6754 O.2     
  17 F17            2.3353    -1.2350    -2.4580 F       
  18 C18            5.2777     2.6857     0.1426 C.ar    
  19 C19            5.6565     3.7623    -0.6400 C.ar    
  20 C20            6.2037     3.5504    -1.8928 C.ar    
  21 C21            6.3677     2.2632    -2.3673 C.ar    
  22 C22           -1.9484     2.1998    -2.0311 C.3     
  23 O23            6.1495    -0.0842    -2.0493 O.3     
  24 C24            6.7151    -0.2298    -3.3535 C.3     
  25 Cl25           5.4443     5.3808    -0.0492 Cl      
  26 H26            0.1514     0.1521    -2.7884 H       
  27 H27            2.5874     1.0803     1.4085 H       
  28 H28            3.8299    -1.6723    -0.3866 H       
  29 H29            4.8503     2.8531     1.1203 H       
  30 H30            6.4984     4.3919    -2.5023 H       
  31 H31            6.7953     2.0982    -3.3453 H       
  32 H32           -2.7438     1.4850    -1.8199 H       
  33 H33           -2.3638     3.2071    -2.0620 H       
  34 H34           -1.4945     1.9644    -2.9937 H       
  35 H35            6.0793     0.2714    -4.0833 H       
  36 H36            7.7093     0.2169    -3.3703 H       
  37 H37            6.7883    -1.2886    -3.6017 H       
@<TRIPOS>BOND
   1    1    2 ar
   2    1    3 ar
   3    1    7 1
   4    2    6 ar
   5    2   26 1
   6    3    4 ar
   7    3    9 1
   8    4    5 ar
   9    4   27 1
  10    5    6 ar
  11    5   10 1
  12    6   17 1
  13    7    8 am
  14    7   22 1
  15    8    9 1
  16    8   14 2
  17   10   11 am
  18   10   28 1
  19   11   12 1
  20   11   15 2
  21   11   16 2
  22   12   13 ar
  23   12   18 ar
  24   13   23 1
  25   13   21 ar
  26   18   19 ar
  27   18   29 1
  28   19   20 ar
  29   19   25 1
  30   20   21 ar
  31   20   30 1
  32   21   31 1
  33   22   32 1
  34   22   33 1
  35   22   34 1
  36   23   24 1
  37   24   35 1
  38   24   36 1
  39   24   37 1

#	End of record

