#	Name: ASD06610094
#	Creating user name:	WinNT
#	Creation time:	15. 06. 2019 21:07

#	Modifying user name:	WinNT
#	Modification time:	15. 06. 2019 21:07

#	Program:	/corina/corina34_cracker 3.40 0067  02.08.2006

@<TRIPOS>MOLECULE
ASD06610094
 324  324    0    0    0
SMALL
NO_CHARGES


@<TRIPOS>ATOM
   1 C1            -0.7071    -2.1484     2.1136 C.2     
   2 O2            -0.7379    -3.3344     1.8622 O.2     
   3 N3             1.7015    -2.4319     2.1983 N.am    
   4 C4             0.6145    -1.4597     2.3377 C.3     
   5 C5             0.7909    -0.3458     1.3038 C.3     
   6 C6             2.0529     0.4217     1.6027 C.ar    
   7 C7             3.2520     0.0262     1.0401 C.ar    
   8 C8             4.4096     0.7302     1.3143 C.ar    
   9 C9             4.3681     1.8300     2.1508 C.ar    
  10 C10            3.1688     2.2261     2.7126 C.ar    
  11 C11            2.0104     1.5247     2.4350 C.ar    
  12 C12           -4.1552    -1.1040     1.4947 C.2     
  13 O13           -3.8379     0.0589     1.3609 O.2     
  14 N14           -1.8545    -1.4450     2.1870 N.am    
  15 C15           -3.1388    -2.1132     1.9632 C.3     
  16 C16           -3.6171    -2.7498     3.2697 C.3     
  17 C17           -2.6487    -3.8611     3.6800 C.3     
  18 C18           -3.1269    -4.4977     4.9865 C.3     
  19 N19           -2.1997    -5.5617     5.3793 N.pl3   
  20 C20           -2.4258    -6.2807     6.5291 C.2     
  21 N21           -1.6008    -7.2274     6.8786 N.2     
  22 N22           -3.5220    -6.0011     7.3103 N.pl3   
  23 C23           -7.7894    -0.9961     1.1154 C.2     
  24 O24           -7.9365    -2.0558     1.6866 O.2     
  25 N25           -5.4168    -1.4938     1.2243 N.am    
  26 C26           -6.4048    -0.5127     0.7689 C.3     
  27 C27           -6.2898    -0.3390    -0.7469 C.3     
  28 C28           -4.9281     0.2693    -1.0886 C.3     
  29 C29           -4.8130     0.4430    -2.6044 C.3     
  30 C30           -3.4514     1.0512    -2.9461 C.3     
  31 N31           -3.3409     1.2180    -4.4014 N.3     
  32 C32          -11.2094    -0.1020     0.1840 C.2     
  33 O33          -10.8339     0.6569    -0.6844 O.2     
  34 N34           -8.8644    -0.2509     0.7906 N.am    
  35 C35          -10.2104    -0.7208     1.1275 C.3     
  36 C36          -10.5472    -0.3162     2.5641 C.3     
  37 C37           -9.6108    -1.0429     3.5315 C.3     
  38 C38           -9.9425    -0.6444     4.9464 C.2     
  39 O39          -10.8362     0.1404     5.1593 O.2     
  40 O40           -9.2452    -1.1613     5.9703 O.3     
  41 C41          -14.8450     0.2543     0.0483 C.2     
  42 O42          -14.9849    -0.1742     1.1742 O.2     
  43 N43          -12.5200    -0.3919     0.3051 N.am    
  44 C44          -13.4911     0.2097    -0.6121 C.3     
  45 C45          -13.5739    -0.6289    -1.8891 C.3     
  46 C46          -12.2335    -0.5720    -2.6244 C.3     
  47 C47          -12.3163    -1.4106    -3.9014 C.3     
  48 N48          -11.0328    -1.3561    -4.6056 N.pl3   
  49 C49          -10.8677    -2.0384    -5.7877 C.2     
  50 N50          -11.8531    -2.7338    -6.2819 N.2     
  51 N51           -9.6631    -1.9872    -6.4485 N.pl3   
  52 C52          -18.2905     0.8329    -1.0273 C.2     
  53 O53          -17.9865     0.8122    -2.2012 O.2     
  54 N54          -15.9003     0.7705    -0.6123 N.am    
  55 C55          -17.2164     0.8138     0.0296 C.3     
  56 C56          -17.3236     2.0755     0.8884 C.3     
  57 C57          -17.1467     3.3112     0.0038 C.3     
  58 C58          -17.3773     4.5729     0.8379 C.3     
  59 C59          -16.2332     2.0562     1.9615 C.3     
  60 C60          -21.9869     0.9360    -1.0352 C.2     
  61 O61          -22.0713     0.9508     0.1746 O.2     
  62 N62          -19.5889     0.8728    -0.6680 N.am    
  63 C63          -20.6330     0.8913    -1.6955 C.3     
  64 C64          -25.4940     1.0218    -2.2040 C.2     
  65 O65          -25.1900     1.0011    -3.3779 O.2     
  66 N66          -23.1039     0.9593    -1.7890 N.am    
  67 C67          -24.4200     1.0027    -1.1470 C.3     
  68 C68          -29.0804     1.7215    -2.3129 C.2     
  69 O69          -29.0934     2.1234    -1.1687 O.2     
  70 N70          -26.7924     1.0617    -1.8447 N.am    
  71 C71          -27.8365     1.0802    -2.8722 C.3     
  72 C72          -28.1520    -0.3531    -3.3046 C.3     
  73 C73          -26.9247    -0.9622    -3.9856 C.3     
  74 C74          -27.2402    -2.3955    -4.4180 C.3     
  75 C75          -26.0129    -3.0045    -5.0990 C.3     
  76 N76          -26.3158    -4.3807    -5.5142 N.3     
  77 C77          -32.5927     1.9718    -3.2945 C.2     
  78 O78          -32.4553     1.1734    -4.1971 O.2     
  79 N79          -30.1783     1.8482    -3.0842 N.am    
  80 C80          -31.3874     2.4716    -2.5405 C.3     
  81 C81          -31.2880     3.9913    -2.6876 C.3     
  82 C82          -30.1394     4.5133    -1.8222 C.3     
  83 C83          -30.0399     6.0330    -1.9692 C.3     
  84 N84          -28.9401     6.5329    -1.1406 N.pl3   
  85 C85          -28.6580     7.8781    -1.1112 C.2     
  86 N86          -27.6794     8.3229    -0.3740 N.2     
  87 N87          -29.4080     8.7543    -1.8595 N.pl3   
  88 C88          -36.1029     2.9435    -3.6064 C.2     
  89 O89          -35.9306     3.9733    -2.9893 O.2     
  90 N90          -33.8235     2.4119    -2.9657 N.am    
  91 C91          -34.9952     1.9260    -3.6987 C.3     
  92 C92          -35.4654     0.6036    -3.0896 C.3     
  93 C93          -34.3885    -0.4638    -3.2945 C.3     
  94 C94          -34.8588    -1.7862    -2.6854 C.3     
  95 N95          -33.8277    -2.8082    -2.8816 N.pl3   
  96 C96          -34.0282    -4.0856    -2.4145 C.2     
  97 N97          -35.1358    -4.3874    -1.7971 N.2     
  98 N98          -33.0606    -5.0447    -2.5986 N.pl3   
  99 C99          -39.6912     3.0119    -4.3014 C.2     
 100 O100         -39.7347     1.8142    -4.4871 O.2     
 101 N101         -37.2851     2.7093    -4.2098 N.am    
 102 C102         -38.3620     3.6985    -4.1202 C.3     
 103 C103         -38.1789     4.7522    -5.2143 C.3     
 104 C104         -36.8888     5.5340    -4.9587 C.3     
 105 C105         -36.7058     6.5878    -6.0528 C.3     
 106 N106         -35.4705     7.3364    -5.8080 N.pl3   
 107 C107         -35.0947     8.3423    -6.6666 C.2     
 108 N108         -33.9957     9.0083    -6.4488 N.2     
 109 N109         -35.8782     8.6456    -7.7548 N.pl3   
 110 C110         -43.0803     4.1014    -5.0898 C.2     
 111 O111         -42.9409     5.2754    -4.8192 O.2     
 112 N112         -40.8316     3.7288    -4.2570 N.am    
 113 C113         -42.1149     3.0821    -4.5420 C.3     
 114 C114         -42.6818     2.4838    -3.2530 C.3     
 115 C115         -43.9434     1.6805    -3.5754 C.3     
 116 C116         -43.5686     0.4575    -4.4148 C.3     
 117 C117         -44.6031     1.2225    -2.2732 C.3     
 118 C118         -46.4063     3.9798    -6.5804 C.2     
 119 O119         -46.4512     2.7679    -6.5941 O.2     
 120 N120         -44.0986     3.7084    -5.8804 N.am    
 121 C121         -45.0975     4.6826    -6.3269 C.3     
 122 C122         -44.6181     5.3493    -7.6178 C.3     
 123 C123         -45.5794     6.4778    -7.9964 C.3     
 124 C124         -45.5145     7.5799    -6.9371 C.3     
 125 C125         -45.1798     7.0535    -9.3565 C.3     
 126 C126         -49.6827     4.9535    -7.8766 C.2     
 127 O127         -49.3109     6.0747    -8.1305 O.2     
 128 N128         -47.5269     4.6981    -6.7920 N.am    
 129 C129         -48.7843     4.0171    -7.1105 C.3     
 130 C130         -49.4769     3.5925    -5.8140 C.3     
 131 O131         -50.8960     4.5420    -8.2769 O.3     
 132 C132           2.8791    -2.2196     2.8185 C.2     
 133 O133           3.0389    -1.2237     3.4919 O.2     
 134 C134          20.4550    -6.9904     7.2364 C.3     
 135 C135          19.3197    -5.9751     7.3820 C.3     
 136 C136          18.1039    -6.4517     6.5848 C.3     
 137 C137          16.9686    -5.4364     6.7304 C.3     
 138 C138          15.7528    -5.9130     5.9332 C.3     
 139 C139          14.6175    -4.8977     6.0787 C.3     
 140 C140          13.4017    -5.3744     5.2815 C.3     
 141 C141          12.2664    -4.3591     5.4271 C.3     
 142 C142          11.0506    -4.8357     4.6299 C.3     
 143 C143           9.9153    -3.8204     4.7755 C.3     
 144 C144           8.6995    -4.2970     3.9783 C.3     
 145 C145           7.5642    -3.2817     4.1239 C.3     
 146 C146           6.3484    -3.7583     3.3267 C.3     
 147 C147           5.2131    -2.7430     3.4723 C.3     
 148 C148           3.9973    -3.2196     2.6751 C.3     
 149 H149           1.5737    -3.2284     1.6596 H       
 150 H150           0.6359    -1.0320     3.3400 H       
 151 H151           0.8585    -0.7822     0.3073 H       
 152 H152          -0.0639     0.3292     1.3476 H       
 153 H153           3.2845    -0.8331     0.3866 H       
 154 H154           5.3466     0.4207     0.8754 H       
 155 H155           5.2726     2.3795     2.3656 H       
 156 H156           3.1363     3.0851     3.3664 H       
 157 H157           1.0727     1.8363     2.8710 H       
 158 H158          -1.8298    -0.4964     2.3881 H       
 159 H159          -3.0187    -2.8869     1.2048 H       
 160 H160          -3.6521    -1.9914     4.0519 H       
 161 H161          -4.6125    -3.1700     3.1262 H       
 162 H162          -2.6136    -4.6195     2.8978 H       
 163 H163          -1.6533    -3.4409     3.8236 H       
 164 H164          -3.1620    -3.7393     5.7686 H       
 165 H165          -4.1224    -4.9178     4.8429 H       
 166 H166          -1.4263    -5.7590     4.8281 H       
 167 H167          -1.7603    -7.7347     7.6898 H       
 168 H168          -4.1359    -5.2965     7.0503 H       
 169 H169          -3.6815    -6.5083     8.1216 H       
 170 H170          -5.6705    -2.4238     1.3314 H       
 171 H171          -6.2204     0.4432     1.2591 H       
 172 H172          -6.3860    -1.3102    -1.2322 H       
 173 H173          -7.0817     0.3227    -1.0979 H       
 174 H174          -4.8319     1.2405    -0.6033 H       
 175 H175          -4.1362    -0.3924    -0.7376 H       
 176 H176          -4.9093    -0.5282    -3.0897 H       
 177 H177          -5.6049     1.1046    -2.9554 H       
 178 H178          -3.3552     2.0225    -2.4608 H       
 179 H179          -2.6595     0.3896    -2.5951 H       
 180 H180          -2.4496     1.6184    -4.6529 H       
 181 H181          -3.4910     0.3415    -4.8783 H       
 182 H182          -8.7468     0.5967     0.3337 H       
 183 H183         -10.2495    -1.8064     1.0371 H       
 184 H184         -10.4219     0.7607     2.6771 H       
 185 H185         -11.5796    -0.5870     2.7853 H       
 186 H186          -9.7361    -2.1198     3.4184 H       
 187 H187          -8.5784    -0.7721     3.3102 H       
 188 H188          -9.4945    -0.8756     6.8599 H       
 189 H189         -12.8203    -0.9988     0.9996 H       
 190 H190         -13.1754     1.2225    -0.8624 H       
 191 H191         -13.8029    -1.6628    -1.6305 H       
 192 H192         -14.3589    -0.2331    -2.5334 H       
 193 H193         -12.0045     0.4619    -2.8829 H       
 194 H194         -11.4484    -0.9678    -1.9801 H       
 195 H195         -12.5452    -2.4445    -3.6429 H       
 196 H196         -13.1013    -1.0148    -4.5458 H       
 197 H197         -10.2994    -0.8386    -4.2378 H       
 198 H198         -11.7366    -3.2152    -7.1159 H       
 199 H199          -8.9298    -1.4697    -6.0807 H       
 200 H200          -9.5467    -2.4686    -7.2825 H       
 201 H201         -15.7884     1.1132    -1.5128 H       
 202 H202         -17.3425    -0.0665     0.6599 H       
 203 H203         -18.3029     2.1078     1.3661 H       
 204 H204         -16.1358     3.3247    -0.4036 H       
 205 H205         -17.8674     3.2792    -0.8134 H       
 206 H206         -18.3883     4.5594     1.2453 H       
 207 H207         -16.6567     4.6049     1.6551 H       
 208 H208         -17.2513     5.4532     0.2077 H       
 209 H209         -15.2540     2.0239     1.4839 H       
 210 H210         -16.3096     2.9550     2.5734 H       
 211 H211         -16.3592     1.1759     2.5918 H       
 212 H212         -19.8320     0.8893     0.2709 H       
 213 H213         -20.5566    -0.0075    -2.3074 H       
 214 H214         -20.5069     1.7717    -2.3258 H       
 215 H215         -23.0363     0.9474    -2.7565 H       
 216 H216         -24.4964     1.9016    -0.5352 H       
 217 H217         -24.5460     0.1224    -0.5168 H       
 218 H218         -27.0356     1.0782    -0.9058 H       
 219 H219         -27.4890     1.6513    -3.7331 H       
 220 H220         -28.4141    -0.9473    -2.4292 H       
 221 H221         -28.9889    -0.3461    -4.0029 H       
 222 H222         -26.6626    -0.3679    -4.8609 H       
 223 H223         -26.0878    -0.9692    -3.2873 H       
 224 H224         -27.5023    -2.9897    -3.5426 H       
 225 H225         -28.0771    -2.3884    -5.1163 H       
 226 H226         -25.7507    -2.4103    -5.9744 H       
 227 H227         -25.1759    -3.0115    -4.4007 H       
 228 H228         -27.1286    -4.4076    -6.1114 H       
 229 H229         -25.5202    -4.8052    -5.9669 H       
 230 H230         -30.1679     1.5267    -3.9993 H       
 231 H231         -31.4861     2.2143    -1.4860 H       
 232 H232         -31.1005     4.2438    -3.7312 H       
 233 H233         -32.2230     4.4494    -2.3653 H       
 234 H234         -30.3269     4.2608    -0.7786 H       
 235 H235         -29.2043     4.0552    -2.1445 H       
 236 H236         -29.8524     6.2855    -3.0128 H       
 237 H237         -30.9750     6.4912    -1.6469 H       
 238 H238         -28.4109     5.9147    -0.6126 H       
 239 H239         -27.4804     9.2720    -0.3533 H       
 240 H240         -30.1363     8.4233    -2.4082 H       
 241 H241         -29.2090     9.7034    -1.8388 H       
 242 H242         -33.9334     3.0504    -2.2438 H       
 243 H243         -34.7307     1.7705    -4.7446 H       
 244 H244         -35.6451     0.7383    -2.0230 H       
 245 H245         -36.3879     0.2871    -3.5763 H       
 246 H246         -34.2089    -0.5986    -4.3611 H       
 247 H247         -33.4660    -0.1473    -2.8078 H       
 248 H248         -35.0385    -1.6514    -1.6188 H       
 249 H249         -35.7813    -2.1027    -3.1721 H       
 250 H250         -33.0034    -2.5837    -3.3410 H       
 251 H251         -35.2774    -5.2887    -1.4676 H       
 252 H252         -32.2363    -4.8202    -3.0580 H       
 253 H253         -33.2021    -5.9460    -2.2691 H       
 254 H254         -37.4229     1.8857    -4.7034 H       
 255 H255         -38.3322     4.1804    -3.1430 H       
 256 H256         -38.1197     4.2610    -6.1855 H       
 257 H257         -39.0268     5.4371    -5.2046 H       
 258 H258         -36.9480     6.0252    -3.9874 H       
 259 H259         -36.0409     4.8491    -4.9684 H       
 260 H260         -36.6466     6.0966    -7.0240 H       
 261 H261         -37.5537     7.2727    -6.0431 H       
 262 H262         -34.9177     7.1223    -5.0402 H       
 263 H263         -33.7306     9.7180    -7.0546 H       
 264 H264         -36.6961     8.1500    -7.9169 H       
 265 H265         -35.6131     9.3553    -8.3606 H       
 266 H266         -40.8026     4.6729    -4.0364 H       
 267 H267         -41.9675     2.2900    -5.2761 H       
 268 H268         -41.9390     1.8274    -2.7997 H       
 269 H269         -42.9297     3.2863    -2.5583 H       
 270 H270         -44.6392     2.3058    -4.1349 H       
 271 H271         -43.0490     0.7811    -5.3167 H       
 272 H272         -42.9168    -0.1956    -3.8345 H       
 273 H273         -44.4730    -0.0845    -4.6913 H       
 274 H274         -44.8701     2.0939    -1.6751 H       
 275 H275         -45.5019     0.6502    -2.5029 H       
 276 H276         -43.9073     0.5973    -1.7137 H       
 277 H277         -44.1701     2.7804    -6.1537 H       
 278 H278         -45.2355     5.4407    -5.5560 H       
 279 H279         -43.6193     5.7584    -7.4663 H       
 280 H280         -44.5906     4.6112    -8.4194 H       
 281 H281         -46.5953     6.0865    -8.0518 H       
 282 H282         -44.5143     8.0129    -6.9242 H       
 283 H283         -46.2431     8.3551    -7.1743 H       
 284 H284         -45.7399     7.1567    -5.9582 H       
 285 H285         -45.2260     6.2683   -10.1111 H       
 286 H286         -45.8646     7.8574    -9.6262 H       
 287 H287         -44.1640     7.4448    -9.3010 H       
 288 H288         -47.5009     5.6660    -6.7334 H       
 289 H289         -48.5765     3.1355    -7.7169 H       
 290 H290         -50.4124     3.0858    -6.0509 H       
 291 H291         -48.8271     2.9152    -5.2598 H       
 292 H292         -49.6847     4.4740    -5.2075 H       
 293 H293         -51.4363     5.1781    -8.7652 H       
 294 H294          21.3211    -6.6508     7.8043 H       
 295 H295          20.1279    -7.9582     7.6166 H       
 296 H296          20.7247    -7.0855     6.1846 H       
 297 H297          19.0500    -5.8800     8.4338 H       
 298 H298          19.6468    -5.0073     7.0018 H       
 299 H299          18.3736    -6.5468     5.5330 H       
 300 H300          17.7768    -7.4195     6.9649 H       
 301 H301          16.6989    -5.3413     7.7822 H       
 302 H302          17.2957    -4.4686     6.3502 H       
 303 H303          16.0225    -6.0082     4.8814 H       
 304 H304          15.4257    -6.8808     6.3133 H       
 305 H305          14.3478    -4.8026     7.1305 H       
 306 H306          14.9446    -3.9300     5.6986 H       
 307 H307          13.6714    -5.4695     4.2297 H       
 308 H308          13.0746    -6.3421     5.6617 H       
 309 H309          11.9967    -4.2639     6.4789 H       
 310 H310          12.5935    -3.3913     5.0470 H       
 311 H311          11.3203    -4.9308     3.5781 H       
 312 H312          10.7235    -5.8035     5.0101 H       
 313 H313           9.6456    -3.7253     5.8273 H       
 314 H314          10.2424    -2.8526     4.3953 H       
 315 H315           8.9692    -4.3921     2.9265 H       
 316 H316           8.3724    -5.2648     4.3585 H       
 317 H317           7.2945    -3.1866     5.1757 H       
 318 H318           7.8913    -2.3139     3.7437 H       
 319 H319           6.6181    -3.8534     2.2749 H       
 320 H320           6.0213    -4.7261     3.7069 H       
 321 H321           4.9434    -2.6479     4.5241 H       
 322 H322           5.5402    -1.7752     3.0921 H       
 323 H323           3.6702    -4.1874     3.0552 H       
 324 H324           4.2671    -3.3148     1.6233 H       
@<TRIPOS>BOND
   1    1    2 2
   2    1    4 1
   3    1   14 am
   4    3  132 am
   5    3    4 1
   6    3  149 1
   7    4    5 1
   8    4  150 1
   9    5    6 1
  10    5  151 1
  11    5  152 1
  12    6    7 ar
  13    6   11 ar
  14    7    8 ar
  15    7  153 1
  16    8    9 ar
  17    8  154 1
  18    9   10 ar
  19    9  155 1
  20   10   11 ar
  21   10  156 1
  22   11  157 1
  23   12   13 2
  24   12   15 1
  25   12   25 am
  26   14   15 1
  27   14  158 1
  28   15   16 1
  29   15  159 1
  30   16   17 1
  31   16  160 1
  32   16  161 1
  33   17   18 1
  34   17  162 1
  35   17  163 1
  36   18   19 1
  37   18  164 1
  38   18  165 1
  39   19   20 1
  40   19  166 1
  41   20   21 2
  42   20   22 1
  43   21  167 1
  44   22  168 1
  45   22  169 1
  46   23   24 2
  47   23   26 1
  48   23   34 am
  49   25   26 1
  50   25  170 1
  51   26   27 1
  52   26  171 1
  53   27   28 1
  54   27  172 1
  55   27  173 1
  56   28   29 1
  57   28  174 1
  58   28  175 1
  59   29   30 1
  60   29  176 1
  61   29  177 1
  62   30   31 1
  63   30  178 1
  64   30  179 1
  65   31  180 1
  66   31  181 1
  67   32   33 2
  68   32   35 1
  69   32   43 am
  70   34   35 1
  71   34  182 1
  72   35   36 1
  73   35  183 1
  74   36   37 1
  75   36  184 1
  76   36  185 1
  77   37   38 1
  78   37  186 1
  79   37  187 1
  80   38   39 2
  81   38   40 1
  82   40  188 1
  83   41   42 2
  84   41   44 1
  85   41   54 am
  86   43   44 1
  87   43  189 1
  88   44   45 1
  89   44  190 1
  90   45   46 1
  91   45  191 1
  92   45  192 1
  93   46   47 1
  94   46  193 1
  95   46  194 1
  96   47   48 1
  97   47  195 1
  98   47  196 1
  99   48   49 1
 100   48  197 1
 101   49   50 2
 102   49   51 1
 103   50  198 1
 104   51  199 1
 105   51  200 1
 106   52   53 2
 107   52   55 1
 108   52   62 am
 109   54   55 1
 110   54  201 1
 111   55   56 1
 112   55  202 1
 113   56   57 1
 114   56   59 1
 115   56  203 1
 116   57   58 1
 117   57  204 1
 118   57  205 1
 119   58  206 1
 120   58  207 1
 121   58  208 1
 122   59  209 1
 123   59  210 1
 124   59  211 1
 125   60   61 2
 126   60   63 1
 127   60   66 am
 128   62   63 1
 129   62  212 1
 130   63  213 1
 131   63  214 1
 132   64   65 2
 133   64   67 1
 134   64   70 am
 135   66   67 1
 136   66  215 1
 137   67  216 1
 138   67  217 1
 139   68   69 2
 140   68   71 1
 141   68   79 am
 142   70   71 1
 143   70  218 1
 144   71   72 1
 145   71  219 1
 146   72   73 1
 147   72  220 1
 148   72  221 1
 149   73   74 1
 150   73  222 1
 151   73  223 1
 152   74   75 1
 153   74  224 1
 154   74  225 1
 155   75   76 1
 156   75  226 1
 157   75  227 1
 158   76  228 1
 159   76  229 1
 160   77   78 2
 161   77   80 1
 162   77   90 am
 163   79   80 1
 164   79  230 1
 165   80   81 1
 166   80  231 1
 167   81   82 1
 168   81  232 1
 169   81  233 1
 170   82   83 1
 171   82  234 1
 172   82  235 1
 173   83   84 1
 174   83  236 1
 175   83  237 1
 176   84   85 1
 177   84  238 1
 178   85   86 2
 179   85   87 1
 180   86  239 1
 181   87  240 1
 182   87  241 1
 183   88   89 2
 184   88   91 1
 185   88  101 am
 186   90   91 1
 187   90  242 1
 188   91   92 1
 189   91  243 1
 190   92   93 1
 191   92  244 1
 192   92  245 1
 193   93   94 1
 194   93  246 1
 195   93  247 1
 196   94   95 1
 197   94  248 1
 198   94  249 1
 199   95   96 1
 200   95  250 1
 201   96   97 2
 202   96   98 1
 203   97  251 1
 204   98  252 1
 205   98  253 1
 206   99  100 2
 207   99  102 1
 208   99  112 am
 209  101  102 1
 210  101  254 1
 211  102  103 1
 212  102  255 1
 213  103  104 1
 214  103  256 1
 215  103  257 1
 216  104  105 1
 217  104  258 1
 218  104  259 1
 219  105  106 1
 220  105  260 1
 221  105  261 1
 222  106  107 1
 223  106  262 1
 224  107  108 2
 225  107  109 1
 226  108  263 1
 227  109  264 1
 228  109  265 1
 229  110  111 2
 230  110  113 1
 231  110  120 am
 232  112  113 1
 233  112  266 1
 234  113  114 1
 235  113  267 1
 236  114  115 1
 237  114  268 1
 238  114  269 1
 239  115  116 1
 240  115  117 1
 241  115  270 1
 242  116  271 1
 243  116  272 1
 244  116  273 1
 245  117  274 1
 246  117  275 1
 247  117  276 1
 248  118  119 2
 249  118  121 1
 250  118  128 am
 251  120  121 1
 252  120  277 1
 253  121  122 1
 254  121  278 1
 255  122  123 1
 256  122  279 1
 257  122  280 1
 258  123  124 1
 259  123  125 1
 260  123  281 1
 261  124  282 1
 262  124  283 1
 263  124  284 1
 264  125  285 1
 265  125  286 1
 266  125  287 1
 267  126  127 2
 268  126  129 1
 269  126  131 1
 270  128  129 1
 271  128  288 1
 272  129  130 1
 273  129  289 1
 274  130  290 1
 275  130  291 1
 276  130  292 1
 277  131  293 1
 278  132  133 2
 279  132  148 1
 280  134  135 1
 281  134  294 1
 282  134  295 1
 283  134  296 1
 284  135  136 1
 285  135  297 1
 286  135  298 1
 287  136  137 1
 288  136  299 1
 289  136  300 1
 290  137  138 1
 291  137  301 1
 292  137  302 1
 293  138  139 1
 294  138  303 1
 295  138  304 1
 296  139  140 1
 297  139  305 1
 298  139  306 1
 299  140  141 1
 300  140  307 1
 301  140  308 1
 302  141  142 1
 303  141  309 1
 304  141  310 1
 305  142  143 1
 306  142  311 1
 307  142  312 1
 308  143  144 1
 309  143  313 1
 310  143  314 1
 311  144  145 1
 312  144  315 1
 313  144  316 1
 314  145  146 1
 315  145  317 1
 316  145  318 1
 317  146  147 1
 318  146  319 1
 319  146  320 1
 320  147  148 1
 321  147  321 1
 322  147  322 1
 323  148  323 1
 324  148  324 1

#	End of record

