#	Name: ASD05872044
#	Creating user name:	WinNT
#	Creation time:	15. 06. 2019 21:04

#	Modifying user name:	WinNT
#	Modification time:	15. 06. 2019 21:04

#	Program:	/corina/corina34_cracker 3.40 0067  02.08.2006

@<TRIPOS>MOLECULE
ASD05872044
  55   59    0    0    0
SMALL
NO_CHARGES


@<TRIPOS>ATOM
   1 C1            -2.6816     0.8445     0.3248 C.ar    
   2 C2            -2.2867    -0.4799     0.3116 C.ar    
   3 C3            -0.9590    -0.8036     0.1028 C.ar    
   4 C4            -0.0256     0.1971    -0.0929 C.ar    
   5 C5            -0.4193     1.5219    -0.0804 C.ar    
   6 C6            -1.7479     1.8464     0.1285 C.ar    
   7 Cl7           -2.2433     3.5102     0.1438 Cl      
   8 C8            -0.5291    -2.2479     0.0891 C.3     
   9 S9            -0.6379    -2.8938    -1.5983 S.3     
  10 C10           -0.0943    -4.5479    -1.3284 C.ar    
  11 N11            0.2406    -4.9336    -0.1032 N.ar    
  12 N12           -0.0312    -5.3915    -2.3544 N.ar    
  13 C13            0.3765    -6.6322    -2.1474 C.ar    
  14 C14            0.7278    -7.0216    -0.8356 C.ar    
  15 N15            0.6405    -6.1333     0.1429 N.ar    
  16 C16            1.1724    -8.4075    -0.5802 C.ar    
  17 C17            0.4154    -9.4701    -1.1086 C.ar    
  18 C18            0.7990   -10.7761    -0.8665 C.ar    
  19 C19            1.9323   -11.0332    -0.1167 C.ar    
  20 C20            2.6856    -9.9903     0.3946 C.ar    
  21 C21            2.3115    -8.6803     0.1670 C.ar    
  22 N22           -0.7040    -9.1731    -1.8921 N.pl3   
  23 C23           -0.5027    -8.5662    -3.2045 C.3     
  24 O24            0.4657    -7.5244    -3.1622 O.3     
  25 C25           -0.0408    -9.6269    -4.1703 C.ar    
  26 C26           -0.5579   -10.9060    -4.0887 C.ar    
  27 C27           -0.1373   -11.8828    -4.9726 C.ar    
  28 C28            0.8040   -11.5802    -5.9427 C.ar    
  29 C29            1.3245   -10.2919    -6.0251 C.ar    
  30 C30            0.8953    -9.3168    -5.1397 C.ar    
  31 O31            1.2190   -12.5398    -6.8124 O.3     
  32 S32            2.3400   -13.4185    -6.2760 S.o2    
  33 O33            2.8753   -14.1548    -7.4106 O.co2   
  34 O34            3.3279   -12.5264    -5.6890 O.co2   
  35 O35            1.7438   -14.3006    -5.2848 O.co2   
  36 O36            2.2492    -9.9900    -6.9755 O.3     
  37 S37            1.6613    -9.3787    -8.2393 S.o2    
  38 O38            2.7069    -9.4177    -9.2498 O.co2   
  39 O39            0.5159   -10.1966    -8.6071 O.co2   
  40 O40            1.2749    -8.0165    -7.9058 O.co2   
  41 H41           -3.7195     1.0971     0.4838 H       
  42 H42           -3.0155    -1.2621     0.4648 H       
  43 H43            1.0116    -0.0564    -0.2552 H       
  44 H44            0.3100     2.3036    -0.2333 H       
  45 H45            0.4995    -2.3242     0.4417 H       
  46 H46           -1.1811    -2.8274     0.7427 H       
  47 H47            0.2147   -11.5938    -1.2617 H       
  48 H48            2.2313   -12.0538     0.0714 H       
  49 H49            3.5715   -10.2024     0.9747 H       
  50 H50            2.9021    -7.8706     0.5695 H       
  51 H51           -1.5981    -9.3664    -1.5694 H       
  52 H52           -1.4498    -8.1566    -3.5554 H       
  53 H53           -1.2919   -11.1432    -3.3328 H       
  54 H54           -0.5425   -12.8817    -4.9063 H       
  55 H55            1.2976    -8.3164    -5.2015 H       
@<TRIPOS>BOND
   1    1    2 ar
   2    1    6 ar
   3    1   41 1
   4    2    3 ar
   5    2   42 1
   6    3    4 ar
   7    3    8 1
   8    4    5 ar
   9    4   43 1
  10    5    6 ar
  11    5   44 1
  12    6    7 1
  13    8    9 1
  14    8   45 1
  15    8   46 1
  16    9   10 1
  17   10   11 ar
  18   10   12 ar
  19   11   15 ar
  20   12   13 ar
  21   13   14 ar
  22   13   24 1
  23   14   15 ar
  24   14   16 1
  25   16   17 ar
  26   16   21 ar
  27   17   18 ar
  28   17   22 1
  29   18   19 ar
  30   18   47 1
  31   19   20 ar
  32   19   48 1
  33   20   21 ar
  34   20   49 1
  35   21   50 1
  36   22   23 1
  37   22   51 1
  38   23   24 1
  39   23   25 1
  40   23   52 1
  41   25   26 ar
  42   25   30 ar
  43   26   27 ar
  44   26   53 1
  45   27   28 ar
  46   27   54 1
  47   28   29 ar
  48   28   31 1
  49   29   30 ar
  50   29   36 1
  51   30   55 1
  52   31   32 1
  53   32   33 ar
  54   32   34 ar
  55   32   35 ar
  56   36   37 1
  57   37   38 ar
  58   37   39 ar
  59   37   40 ar

#	End of record

