#	Name: ASD08150548
#	Creating user name:	WinNT
#	Creation time:	15. 06. 2019 21:16

#	Modifying user name:	WinNT
#	Modification time:	15. 06. 2019 21:16

#	Program:	/corina/corina34_cracker 3.40 0067  02.08.2006

@<TRIPOS>MOLECULE
ASD08150548
  30   32    0    0    0
SMALL
NO_CHARGES


@<TRIPOS>ATOM
   1 N1            -0.0155     1.2940     0.0092 N.2     
   2 C2             0.0021    -0.0041     0.0020 C.2     
   3 N3             1.1492    -0.7359    -0.0129 N.am    
   4 C4             2.3564    -0.1242    -0.0206 C.2     
   5 C5             2.3710     1.3448    -0.0129 C.ar    
   6 C6             3.5625     2.0691    -0.0195 C.ar    
   7 C7             3.5203     3.4468    -0.0113 C.ar    
   8 C8             2.2984     4.1168     0.0039 C.ar    
   9 C9             1.1105     3.4164     0.0111 C.ar    
  10 C10            1.1303     2.0210     0.0021 C.ar    
  11 O11            3.3905    -0.7666    -0.0331 O.2     
  12 F12            2.2773     5.4676     0.0122 F       
  13 F13            4.6720     4.1530    -0.0176 F       
  14 C14            1.0800    -2.1352    -0.0197 C.ar    
  15 C15            1.0570    -2.8373     1.1796 C.ar    
  16 C16            0.9887    -4.2175     1.1688 C.ar    
  17 C17            0.9437    -4.8994    -0.0336 C.ar    
  18 C18            0.9669    -4.2033    -1.2279 C.ar    
  19 C19            1.0284    -2.8232    -1.2242 C.ar    
  20 Cl20           1.1146    -1.9817     2.6890 Cl      
  21 C21           -1.3144    -0.7375     0.0112 C.3     
  22 Cl22          -2.6666     0.4550     0.0310 Cl      
  23 H23            4.5118     1.5543    -0.0305 H       
  24 H24            0.1690     3.9454     0.0232 H       
  25 H25            0.9708    -4.7641     2.1000 H       
  26 H26            0.8907    -5.9781    -0.0396 H       
  27 H27            0.9319    -4.7390    -2.1650 H       
  28 H28            1.0412    -2.2802    -2.1577 H       
  29 H29           -1.3906    -1.3584    -0.8815 H       
  30 H30           -1.3729    -1.3679     0.8984 H       
@<TRIPOS>BOND
   1    1    2 2
   2    1   10 1
   3    2    3 1
   4    2   21 1
   5    3    4 am
   6    3   14 1
   7    4    5 1
   8    4   11 2
   9    5    6 ar
  10    5   10 ar
  11    6    7 ar
  12    6   23 1
  13    7    8 ar
  14    7   13 1
  15    8    9 ar
  16    8   12 1
  17    9   10 ar
  18    9   24 1
  19   14   15 ar
  20   14   19 ar
  21   15   16 ar
  22   15   20 1
  23   16   17 ar
  24   16   25 1
  25   17   18 ar
  26   17   26 1
  27   18   19 ar
  28   18   27 1
  29   19   28 1
  30   21   22 1
  31   21   29 1
  32   21   30 1

#	End of record

