#	Name: ASD03430250
#	Creating user name:	WinNT
#	Creation time:	15. 06. 2019 20:40

#	Modifying user name:	WinNT
#	Modification time:	15. 06. 2019 20:40

#	Program:	/corina/corina34_cracker 3.40 0067  02.08.2006

@<TRIPOS>MOLECULE
ASD03430250
  51   56    0    0    0
SMALL
NO_CHARGES


@<TRIPOS>ATOM
   1 C1            -0.0167     1.3821     0.0096 C.ar    
   2 C2             0.0021    -0.0041     0.0020 C.ar    
   3 C3             1.2028    -0.6818    -0.0162 C.ar    
   4 C4             2.4087     0.0129    -0.0162 C.ar    
   5 C5             2.3861     1.4039    -0.0119 C.ar    
   6 C6             1.1815     2.0867     0.0020 C.ar    
   7 O7             3.4713    -0.8419    -0.0074 O.3     
   8 C8             1.5511    -2.1458    -0.0509 C.3     
   9 C9             3.0363    -2.1458    -0.4380 C.3     
  10 C10            0.4268    -3.8598     1.0070 C.ar    
  11 C11            1.3158    -2.8198     1.2682 C.ar    
  12 C12            0.7167    -2.9064    -1.0410 C.2     
  13 N13            0.0966    -3.8836    -0.3502 N.am    
  14 O14            0.6192    -2.6843    -2.2294 O.2     
  15 C15            1.7821    -2.6009     2.5448 C.ar    
  16 C16            1.3690    -3.4172     3.5832 C.ar    
  17 C17            0.4871    -4.4527     3.3353 C.ar    
  18 C18            0.0170    -4.6765     2.0576 C.ar    
  19 O19           -1.2113     2.0356     0.0189 O.3     
  20 C20           -1.1865     3.4165     0.3963 C.3     
  21 C21           -0.0349     4.0988    -0.3543 C.3     
  22 O22            1.1866     3.4483     0.0115 O.3     
  23 C23           -0.8166    -4.8579    -0.9526 C.3     
  24 C24           -2.2242    -4.3214    -0.9082 C.ar    
  25 C25           -2.7060    -3.5639    -1.9611 C.ar    
  26 C26           -3.0307    -4.5932     0.1827 C.ar    
  27 C27           -4.3202    -4.1056     0.2297 C.ar    
  28 C28           -4.8109    -3.3358    -0.8268 C.ar    
  29 C29           -3.9932    -3.0693    -1.9268 C.ar    
  30 C30           -6.1909    -2.8102    -0.7835 C.2     
  31 O31           -6.6612    -2.0678    -1.8044 O.3     
  32 O32           -6.9014    -3.0475     0.1727 O.2     
  33 H33           -0.9268    -0.5550     0.0107 H       
  34 H34            3.3148     1.9551    -0.0190 H       
  35 H35            3.1554    -2.2571    -1.5158 H       
  36 H36            3.5752    -2.9292     0.0949 H       
  37 H37            2.4713    -1.7916     2.7361 H       
  38 H38            1.7349    -3.2459     4.5848 H       
  39 H39            0.1649    -5.0898     4.1457 H       
  40 H40           -0.6714    -5.4876     1.8718 H       
  41 H41           -2.1315     3.8882     0.1269 H       
  42 H42           -1.0261     3.5010     1.4711 H       
  43 H43           -0.1916     4.0078    -1.4291 H       
  44 H44            0.0118     5.1519    -0.0769 H       
  45 H45           -0.5276    -5.0346    -1.9886 H       
  46 H46           -0.7671    -5.7943    -0.3969 H       
  47 H47           -2.0726    -3.3592    -2.8116 H       
  48 H48           -2.6499    -5.1888     0.9992 H       
  49 H49           -4.9490    -4.3191     1.0815 H       
  50 H50           -4.3665    -2.4742    -2.7472 H       
  51 H51           -7.5702    -1.7460    -1.7310 H       
@<TRIPOS>BOND
   1    1    2 ar
   2    1    6 ar
   3    1   19 1
   4    2    3 ar
   5    2   33 1
   6    3    4 ar
   7    3    8 1
   8    4    5 ar
   9    4    7 1
  10    5    6 ar
  11    5   34 1
  12    6   22 1
  13    7    9 1
  14    8    9 1
  15    8   11 1
  16    8   12 1
  17    9   35 1
  18    9   36 1
  19   10   11 ar
  20   10   13 1
  21   10   18 ar
  22   11   15 ar
  23   12   13 am
  24   12   14 2
  25   13   23 1
  26   15   16 ar
  27   15   37 1
  28   16   17 ar
  29   16   38 1
  30   17   18 ar
  31   17   39 1
  32   18   40 1
  33   19   20 1
  34   20   21 1
  35   20   41 1
  36   20   42 1
  37   21   22 1
  38   21   43 1
  39   21   44 1
  40   23   24 1
  41   23   45 1
  42   23   46 1
  43   24   25 ar
  44   24   26 ar
  45   25   29 ar
  46   25   47 1
  47   26   27 ar
  48   26   48 1
  49   27   28 ar
  50   27   49 1
  51   28   29 ar
  52   28   30 1
  53   29   50 1
  54   30   31 1
  55   30   32 2
  56   31   51 1

#	End of record

