#	Name: ASD03731855
#	Creating user name:	WinNT
#	Creation time:	15. 06. 2019 20:46

#	Modifying user name:	WinNT
#	Modification time:	15. 06. 2019 20:46

#	Program:	/corina/corina34_cracker 3.40 0067  02.08.2006

@<TRIPOS>MOLECULE
ASD03731855
  37   38    0    0    0
SMALL
NO_CHARGES


@<TRIPOS>ATOM
   1 C1            -0.1162     1.4101    -0.8584 C.2     
   2 C2            -0.0721    -0.0498    -0.6532 C.ar    
   3 C3             1.1580    -0.7125    -0.5970 C.ar    
   4 C4             1.1959    -2.0694    -0.4057 C.ar    
   5 C5             0.0108    -2.7881    -0.2676 C.ar    
   6 C6            -1.2160    -2.1308    -0.3235 C.ar    
   7 C7            -1.2600    -0.7731    -0.5085 C.ar    
   8 O8             0.9177     2.0386    -0.9791 O.2     
   9 N9            -1.3027     2.0466    -0.9179 N.am    
  10 S10           -1.3523     3.6858    -1.1483 S.o2    
  11 O11           -2.7379     4.0003    -1.1311 O.2     
  12 O12           -0.4708     4.2051    -0.1622 O.2     
  13 S13            0.0635    -4.5321    -0.0224 S.3     
  14 C14            1.7775    -4.9044    -0.1904 C.ar    
  15 C15            2.5919    -4.9539     0.9336 C.ar    
  16 C16            3.9391    -5.2474     0.7971 C.ar    
  17 C17            4.4717    -5.4912    -0.4615 C.ar    
  18 C18            3.6603    -5.4412    -1.5790 C.ar    
  19 C19            2.3154    -5.1546    -1.4472 C.ar    
  20 O20            4.7388    -5.2962     1.8948 O.3     
  21 C21            6.1175    -5.6046     1.6799 C.3     
  22 F22            6.6864    -4.6387     0.8429 F       
  23 F23            6.7902    -5.6133     2.9065 F       
  24 F24            6.2256    -6.8637     1.0798 F       
  25 C25           -0.6646     3.9303    -2.8090 C.3     
  26 H26            2.0773    -0.1559    -0.7047 H       
  27 H27            2.1457    -2.5818    -0.3622 H       
  28 H28           -2.1334    -2.6907    -0.2169 H       
  29 H29           -2.2114    -0.2633    -0.5469 H       
  30 H30           -2.1276     1.5447    -0.8256 H       
  31 H31            2.1760    -4.7636     1.9120 H       
  32 H32            5.5219    -5.7200    -0.5676 H       
  33 H33            4.0776    -5.6306    -2.5569 H       
  34 H34            1.6825    -5.1208    -2.3216 H       
  35 H35           -1.2764     3.3983    -3.5376 H       
  36 H36           -0.6590     4.9941    -3.0469 H       
  37 H37            0.3548     3.5457    -2.8405 H       
@<TRIPOS>BOND
   1    1    2 1
   2    1    8 2
   3    1    9 am
   4    2    3 ar
   5    2    7 ar
   6    3    4 ar
   7    3   26 1
   8    4    5 ar
   9    4   27 1
  10    5    6 ar
  11    5   13 1
  12    6    7 ar
  13    6   28 1
  14    7   29 1
  15    9   10 am
  16    9   30 1
  17   10   11 2
  18   10   12 2
  19   10   25 1
  20   13   14 1
  21   14   15 ar
  22   14   19 ar
  23   15   16 ar
  24   15   31 1
  25   16   17 ar
  26   16   20 1
  27   17   18 ar
  28   17   32 1
  29   18   19 ar
  30   18   33 1
  31   19   34 1
  32   20   21 1
  33   21   22 1
  34   21   23 1
  35   21   24 1
  36   25   35 1
  37   25   36 1
  38   25   37 1

#	End of record

