#	Name: ASD05430250
#	Creating user name:	WinNT
#	Creation time:	15. 06. 2019 21:00

#	Modifying user name:	WinNT
#	Modification time:	15. 06. 2019 21:00

#	Program:	/corina/corina34_cracker 3.40 0067  02.08.2006

@<TRIPOS>MOLECULE
ASD05430250
  59   65    0    0    0
SMALL
NO_CHARGES


@<TRIPOS>ATOM
   1 C1            -0.0174     2.6967    -0.8071 C.ar    
   2 C2            -0.1679     1.5690    -1.6168 C.ar    
   3 C3             0.9481     0.9209    -2.1232 C.ar    
   4 C4             2.2202     1.3771    -1.8363 C.ar    
   5 C5             2.3980     2.5009    -1.0296 C.ar    
   6 C6             1.2677     3.1687    -0.5097 C.ar    
   7 C7             4.4516     0.6296    -0.3283 C.3     
   8 C8             4.7399     2.1080    -0.4688 C.2     
   9 C9             3.7502     2.9865    -0.7242 C.2     
  10 C10            5.0452     0.1182     0.9870 C.3     
  11 S11            6.8169     0.4427     1.2236 S.o2    
  12 N12            7.0460     1.9208     0.5246 N.am    
  13 C13            6.1357     2.5602    -0.3175 C.2     
  14 N14            6.7058     3.5629    -0.9102 N.2     
  15 N15           -1.4497     1.0912    -1.9178 N.pl3   
  16 C16           -1.9342     0.7866    -3.1637 C.2     
  17 C17           -3.2019     0.3641    -2.9966 C.2     
  18 N18           -3.4888     0.4076    -1.6871 N.2     
  19 C19           -2.4458     0.8366    -1.0299 C.2     
  20 C20           -4.1368    -0.0802    -4.0918 C.3     
  21 C21            8.1995     2.8170     0.6436 C.3     
  22 O22            8.0654     3.6689    -0.5137 O.3     
  23 C23            8.1186     3.6252     1.9130 C.ar    
  24 N24           -0.1832     4.5165     0.5108 N.2     
  25 O25           -0.8940     3.5165    -0.1915 O.3     
  26 C26            9.5080     2.0263     0.5855 C.3     
  27 C27            9.0107     4.6583     2.1321 C.ar    
  28 C28            8.9377     5.3998     3.2960 C.ar    
  29 C29            7.0739     4.0765     4.0197 C.ar    
  30 C30            7.1488     3.3364     2.8550 C.ar    
  31 O31            7.1074     0.6541     2.5984 O.2     
  32 O32            7.5976    -0.4449     0.4350 O.2     
  33 C33            7.9704     5.1078     4.2427 C.ar    
  34 F34            7.8982     5.8320     5.3810 F       
  35 C35            1.0930     4.3426     0.3447 C.2     
  36 C36            4.1509     0.1460     2.2270 C.3     
  37 C37            4.4862    -1.1872     1.5551 C.3     
  38 H38            0.8217     0.0495    -2.7486 H       
  39 H39            3.0800     0.8614    -2.2378 H       
  40 H40            3.3736     0.4679    -0.3277 H       
  41 H41            4.8997     0.0909    -1.1631 H       
  42 H42            3.9513     4.0474    -0.7044 H       
  43 H43           -1.4015     0.8697    -4.0995 H       
  44 H44           -2.3868     0.9724     0.0399 H       
  45 H45           -4.0266    -1.1530    -4.2507 H       
  46 H46           -5.1647     0.1407    -3.8040 H       
  47 H47           -3.8955     0.4501    -5.0130 H       
  48 H48            9.5705     1.4965    -0.3650 H       
  49 H49           10.3509     2.7115     0.6757 H       
  50 H50            9.5348     1.3076     1.4046 H       
  51 H51            9.7651     4.8858     1.3935 H       
  52 H52            9.6352     6.2064     3.4673 H       
  53 H53            6.3162     3.8507     4.7554 H       
  54 H54            6.4496     2.5319     2.6807 H       
  55 H55            1.8808     4.9531     0.7608 H       
  56 H56            4.6250     0.3602     3.1848 H       
  57 H57            3.1372     0.5287     2.1080 H       
  58 H58            3.6932    -1.6815     0.9940 H       
  59 H59            5.1810    -1.8500     2.0709 H       
@<TRIPOS>BOND
   1    1    2 ar
   2    1    6 ar
   3    1   25 1
   4    2    3 ar
   5    2   15 1
   6    3    4 ar
   7    3   38 1
   8    4    5 ar
   9    4   39 1
  10    5    6 ar
  11    5    9 1
  12    6   35 1
  13    7    8 1
  14    7   10 1
  15    7   40 1
  16    7   41 1
  17    8    9 2
  18    8   13 1
  19    9   42 1
  20   10   11 1
  21   10   36 1
  22   10   37 1
  23   11   12 am
  24   11   31 2
  25   11   32 2
  26   12   13 1
  27   12   21 1
  28   13   14 2
  29   14   22 1
  30   15   16 1
  31   15   19 1
  32   16   17 2
  33   16   43 1
  34   17   18 1
  35   17   20 1
  36   18   19 2
  37   19   44 1
  38   20   45 1
  39   20   46 1
  40   20   47 1
  41   21   22 1
  42   21   23 1
  43   21   26 1
  44   23   27 ar
  45   23   30 ar
  46   24   25 1
  47   24   35 2
  48   26   48 1
  49   26   49 1
  50   26   50 1
  51   27   28 ar
  52   27   51 1
  53   28   33 ar
  54   28   52 1
  55   29   30 ar
  56   29   33 ar
  57   29   53 1
  58   30   54 1
  59   33   34 1
  60   35   55 1
  61   36   37 1
  62   36   56 1
  63   36   57 1
  64   37   58 1
  65   37   59 1

#	End of record

