#	Name: ASD05430708
#	Creating user name:	WinNT
#	Creation time:	15. 06. 2019 21:00

#	Modifying user name:	WinNT
#	Modification time:	15. 06. 2019 21:00

#	Program:	/corina/corina34_cracker 3.40 0067  02.08.2006

@<TRIPOS>MOLECULE
ASD05430708
  57   60    0    0    0
SMALL
NO_CHARGES


@<TRIPOS>ATOM
   1 C1            -0.0172     1.3888     0.0343 C.ar    
   2 C2            -0.0002    -0.0081     0.0173 C.ar    
   3 C3             1.1853     2.0993     0.0435 C.ar    
   4 C4             2.3875     1.4175     0.0358 C.ar    
   5 C5             2.3976     0.0231     0.0188 C.ar    
   6 C6             1.2011    -0.6827     0.0101 C.ar    
   7 N7             3.6158    -0.6667     0.0110 N.pl3   
   8 C8             3.9756    -1.6954     0.8433 C.2     
   9 C9             4.6629    -0.4475    -0.8267 C.2     
  10 N10            5.6168    -1.2865    -0.5278 N.2     
  11 C11            5.2223    -2.0631     0.4923 C.2     
  12 C12            6.0344    -3.1582     1.1346 C.3     
  13 C13           -1.3040     2.1127     0.0364 C.2     
  14 O14           -1.3176     3.3286     0.0512 O.2     
  15 N15           -2.4636     1.4259     0.0218 N.am    
  16 C16           -3.6824     2.1068     0.1369 C.2     
  17 C17           -4.6395     2.0128    -0.8629 C.2     
  18 C18           -5.8565     2.7079    -0.7218 C.2     
  19 N19           -6.0852     3.4341     0.3372 N.2     
  20 N20           -5.1355     3.5439     1.3579 N.am    
  21 C21           -3.9583     2.8932     1.2719 C.2     
  22 N22           -4.4001     1.2417    -1.9915 N.pl3   
  23 O23           -3.1329     2.9932     2.1669 O.2     
  24 C24           -5.4252     4.3683     2.5338 C.3     
  25 C25           -5.6714     5.8133     2.0954 C.3     
  26 C26           -6.6528     3.8381     3.2288 C.ar    
  27 C27           -6.7013     3.7974     4.6098 C.ar    
  28 C28           -7.8267     3.3119     5.2482 C.ar    
  29 C29           -8.9059     2.8660     4.5042 C.ar    
  30 C30           -8.8562     2.9073     3.1211 C.ar    
  31 C31           -7.7318     3.3981     2.4849 C.ar    
  32 F32          -10.0064     2.3907     5.1272 F       
  33 O33            3.5598     2.1060     0.0443 O.3     
  34 C34            3.4744     3.5324     0.0611 C.3     
  35 H35           -0.9289    -0.5593     0.0102 H       
  36 H36            1.1758     3.1792     0.0563 H       
  37 H37            1.2126    -1.7626    -0.0030 H       
  38 H38            3.3744    -2.1274     1.6297 H       
  39 H39            4.6995     0.2962    -1.6089 H       
  40 H40            6.6185    -2.7432     1.9560 H       
  41 H41            5.3660    -3.9294     1.5173 H       
  42 H42            6.7061    -3.5939     0.3950 H       
  43 H43           -2.4542     0.4602    -0.0683 H       
  44 H44           -6.6057     2.6393    -1.4966 H       
  45 H45           -3.5338     0.8244    -2.1189 H       
  46 H46           -5.0990     1.1201    -2.6530 H       
  47 H47           -4.5776     4.3356     3.2183 H       
  48 H48           -6.5191     5.8460     1.4109 H       
  49 H49           -5.8870     6.4267     2.9703 H       
  50 H50           -4.7835     6.1968     1.5927 H       
  51 H51           -5.8592     4.1449     5.1899 H       
  52 H52           -7.8642     3.2798     6.3271 H       
  53 H53           -9.6974     2.5598     2.5397 H       
  54 H54           -7.6929     3.4304     1.4061 H       
  55 H55            4.4785     3.9564     0.0664 H       
  56 H56            2.9400     3.8748    -0.8250 H       
  57 H57            2.9395     3.8538     0.9548 H       
@<TRIPOS>BOND
   1    1    2 ar
   2    1    3 ar
   3    1   13 1
   4    2    6 ar
   5    2   35 1
   6    3    4 ar
   7    3   36 1
   8    4    5 ar
   9    4   33 1
  10    5    6 ar
  11    5    7 1
  12    6   37 1
  13    7    8 1
  14    7    9 1
  15    8   11 2
  16    8   38 1
  17    9   10 2
  18    9   39 1
  19   10   11 1
  20   11   12 1
  21   12   40 1
  22   12   41 1
  23   12   42 1
  24   13   14 2
  25   13   15 am
  26   15   16 1
  27   15   43 1
  28   16   17 2
  29   16   21 1
  30   17   18 1
  31   17   22 1
  32   18   19 2
  33   18   44 1
  34   19   20 1
  35   20   21 am
  36   20   24 1
  37   21   23 2
  38   22   45 1
  39   22   46 1
  40   24   25 1
  41   24   26 1
  42   24   47 1
  43   25   48 1
  44   25   49 1
  45   25   50 1
  46   26   27 ar
  47   26   31 ar
  48   27   28 ar
  49   27   51 1
  50   28   29 ar
  51   28   52 1
  52   29   30 ar
  53   29   32 1
  54   30   31 ar
  55   30   53 1
  56   31   54 1
  57   33   34 1
  58   34   55 1
  59   34   56 1
  60   34   57 1

#	End of record

