#	Name: ASD09890034
#	Creating user name:	WinNT
#	Creation time:	15. 06. 2019 21:24

#	Modifying user name:	WinNT
#	Modification time:	15. 06. 2019 21:24

#	Program:	/corina/corina34_cracker 3.40 0067  02.08.2006

@<TRIPOS>MOLECULE
ASD09890034
  35   36    0    0    0
SMALL
NO_CHARGES


@<TRIPOS>ATOM
   1 C1            -0.0167     1.3784     0.0096 C.ar    
   2 C2             0.0021    -0.0041     0.0020 C.ar    
   3 C3             1.2074    -0.6814    -0.0127 C.ar    
   4 C4             2.3963     0.0221    -0.0203 C.ar    
   5 C5             2.3802     1.4093    -0.0132 C.ar    
   6 C6             1.1695     2.0865     0.0021 C.ar    
   7 O7             3.5484     2.1036    -0.0202 O.3     
   8 C8             3.4557     3.5296    -0.0122 C.3     
   9 C9             4.8408     4.1231    -0.0217 C.2     
  10 N10            5.5758     4.4479    -1.1283 N.pl3   
  11 C11            6.7547     4.9487    -0.6554 C.2     
  12 N12            6.6908     4.9097     0.6553 N.2     
  13 N13            5.5577     4.4271     1.0230 N.2     
  14 S14            8.1062     5.5358    -1.6214 S.3     
  15 C15            9.2503     6.0146    -0.3031 C.3     
  16 C16            9.6805     4.7699     0.4758 C.3     
  17 C17           10.4823     6.6842    -0.9153 C.3     
  18 C18            5.1803     4.2909    -2.5302 C.3     
  19 H19           -0.9595     1.9052     0.0170 H       
  20 H20           -0.9263    -0.5558     0.0080 H       
  21 H21            1.2194    -1.7613    -0.0179 H       
  22 H22            3.3375    -0.5074    -0.0315 H       
  23 H23            1.1543     3.1664     0.0073 H       
  24 H24            2.9113     3.8632    -0.8956 H       
  25 H25            2.9274     3.8543     0.8842 H       
  26 H26            8.7551     6.7125     0.3720 H       
  27 H27           10.3695     5.0582     1.2697 H       
  28 H28            8.8028     4.2928     0.9119 H       
  29 H29           10.1756     4.0719    -0.1993 H       
  30 H30           10.1758     7.5709    -1.4702 H       
  31 H31           11.1713     6.9725    -0.1214 H       
  32 H32           10.9774     5.9862    -1.5904 H       
  33 H33            4.6775     5.1966    -2.8694 H       
  34 H34            6.0666     4.1170    -3.1404 H       
  35 H35            4.5026     3.4424    -2.6237 H       
@<TRIPOS>BOND
   1    1    2 ar
   2    1    6 ar
   3    1   19 1
   4    2    3 ar
   5    2   20 1
   6    3    4 ar
   7    3   21 1
   8    4    5 ar
   9    4   22 1
  10    5    6 ar
  11    5    7 1
  12    6   23 1
  13    7    8 1
  14    8    9 1
  15    8   24 1
  16    8   25 1
  17    9   10 1
  18    9   13 2
  19   10   11 1
  20   10   18 1
  21   11   12 2
  22   11   14 1
  23   12   13 1
  24   14   15 1
  25   15   16 1
  26   15   17 1
  27   15   26 1
  28   16   27 1
  29   16   28 1
  30   16   29 1
  31   17   30 1
  32   17   31 1
  33   17   32 1
  34   18   33 1
  35   18   34 1
  36   18   35 1

#	End of record

