#	Name: ASD02039271
#	Creating user name:	WinNT
#	Creation time:	15. 06. 2019 20:18

#	Modifying user name:	WinNT
#	Modification time:	15. 06. 2019 20:18

#	Program:	/corina/corina34_cracker 3.40 0067  02.08.2006

@<TRIPOS>MOLECULE
ASD02039271
  47   49    0    0    0
SMALL
NO_CHARGES


@<TRIPOS>ATOM
   1 C1            -0.2030     1.0591    -0.5285 C.ar    
   2 C2            -0.0141    -0.3046    -0.4033 C.ar    
   3 C3            -1.0568    -1.1673    -0.7112 C.ar    
   4 C4            -2.2580    -0.6266    -1.1358 C.ar    
   5 C5            -2.3784     0.7577    -1.2390 C.ar    
   6 N6            -1.3589     1.5480    -0.9299 N.ar    
   7 C7            -3.6592     1.3528    -1.6932 C.ar    
   8 C8            -3.7887     2.7363    -1.7994 C.ar    
   9 C9            -4.9826     3.2845    -2.2224 C.ar    
  10 C10           -6.0493     2.4634    -2.5406 C.ar    
  11 C11           -5.9264     1.0896    -2.4369 C.ar    
  12 C12           -4.7354     0.5302    -2.0205 C.ar    
  13 C13            0.9264     1.9997    -0.1953 C.3     
  14 N14            1.6462     2.3521    -1.4217 N.am    
  15 C15            1.1498     3.4323    -2.2777 C.3     
  16 C16            2.7652     1.6825    -1.7622 C.2     
  17 C17            3.2081     0.5306    -0.9576 C.2     
  18 C18            4.2454    -0.3059    -1.2496 C.2     
  19 C19            2.2347     4.4999    -2.4326 C.3     
  20 N20            2.6620     0.1118     0.2126 N.2     
  21 C21            3.3152    -0.9334     0.6317 C.2     
  22 N22            4.3054    -1.2202    -0.2530 N.pl3   
  23 O23            3.4094     2.0292    -2.7339 O.2     
  24 C24            5.2654    -2.3218    -0.1479 C.3     
  25 C25            0.7895     2.8680    -3.6535 C.3     
  26 H26            0.9360    -0.6950    -0.0696 H       
  27 H27           -0.9335    -2.2365    -0.6217 H       
  28 H28           -3.0902    -1.2687    -1.3839 H       
  29 H29           -2.9565     3.3782    -1.5509 H       
  30 H30           -5.0842     4.3565    -2.3048 H       
  31 H31           -6.9819     2.8967    -2.8708 H       
  32 H32           -6.7627     0.4532    -2.6863 H       
  33 H33           -4.6404    -0.5426    -1.9403 H       
  34 H34            0.5237     2.9034     0.2620 H       
  35 H35            1.6104     1.5140     0.5007 H       
  36 H36            0.2641     3.8774    -1.8243 H       
  37 H37            4.8943    -0.2498    -2.1111 H       
  38 H38            3.1439     4.0404    -2.8204 H       
  39 H39            1.8920     5.2684    -3.1254 H       
  40 H40            2.4413     4.9514    -1.4623 H       
  41 H41            3.1057    -1.4820     1.5380 H       
  42 H42            4.8610    -3.2047    -0.6428 H       
  43 H43            6.2020    -2.0344    -0.6257 H       
  44 H44            5.4476    -2.5459     0.9032 H       
  45 H45           -0.0154     2.1405    -3.5484 H       
  46 H46            0.4634     3.6790    -4.3048 H       
  47 H47            1.6636     2.3827    -4.0874 H       
@<TRIPOS>BOND
   1    1    2 ar
   2    1   13 1
   3    1    6 ar
   4    2    3 ar
   5    2   26 1
   6    3    4 ar
   7    3   27 1
   8    4    5 ar
   9    4   28 1
  10    5    6 ar
  11    5    7 1
  12    7    8 ar
  13    7   12 ar
  14    8    9 ar
  15    8   29 1
  16    9   10 ar
  17    9   30 1
  18   10   11 ar
  19   10   31 1
  20   11   12 ar
  21   11   32 1
  22   12   33 1
  23   13   14 1
  24   13   34 1
  25   13   35 1
  26   14   15 1
  27   14   16 am
  28   15   25 1
  29   15   19 1
  30   15   36 1
  31   16   17 1
  32   16   23 2
  33   17   18 2
  34   17   20 1
  35   18   22 1
  36   18   37 1
  37   19   38 1
  38   19   39 1
  39   19   40 1
  40   20   21 2
  41   21   22 1
  42   21   41 1
  43   22   24 1
  44   24   42 1
  45   24   43 1
  46   24   44 1
  47   25   45 1
  48   25   46 1
  49   25   47 1

#	End of record

