#	Name: ASD03331486
#	Creating user name:	WinNT
#	Creation time:	15. 06. 2019 20:39

#	Modifying user name:	WinNT
#	Modification time:	15. 06. 2019 20:39

#	Program:	/corina/corina34_cracker 3.40 0067  02.08.2006

@<TRIPOS>MOLECULE
ASD03331486
  50   52    0    0    0
SMALL
NO_CHARGES


@<TRIPOS>ATOM
   1 C1            -0.0180     1.4750     0.0102 C.ar    
   2 C2             0.0021    -0.0041     0.0020 C.2     
   3 N3            -1.0198    -0.8136     0.3847 N.pl3   
   4 C4            -0.6011    -2.1032     0.2305 C.2     
   5 C5             0.6674    -2.0580    -0.2466 C.2     
   6 N6             1.0095    -0.7560    -0.3820 N.2     
   7 C7             1.5179    -3.2182    -0.5661 C.2     
   8 N8             2.7669    -3.0291    -1.0360 N.am    
   9 C9            -0.9791     2.1577     0.7562 C.ar    
  10 O10            1.0928    -4.3464    -0.4058 O.2     
  11 C11            3.6124    -4.1825    -1.3536 C.3     
  12 C12            2.9356    -5.0291    -2.4334 C.3     
  13 C13            4.9697    -3.6946    -1.8643 C.3     
  14 C14           -2.3511    -0.4503     0.8780 C.3     
  15 C15           -3.2538    -1.6865     0.7738 C.3     
  16 N16           -2.5851    -2.8447     1.3830 N.3     
  17 C17           -1.4533    -3.3023     0.5568 C.3     
  18 C18           -0.9932     3.5389     0.7601 C.ar    
  19 C19           -0.0536     4.2460     0.0232 C.ar    
  20 C20            0.9018     3.5709    -0.7190 C.ar    
  21 C21            0.9279     2.1918    -0.7237 C.ar    
  22 F22           -0.0709     5.5968     0.0292 F       
  23 F23           -1.9230     4.2022     1.4818 F       
  24 C24           -3.5378    -3.9369     1.6222 C.3     
  25 C25           -4.5709    -1.4174     1.5044 C.3     
  26 C26            3.8152    -5.0283    -0.0949 C.3     
  27 H27            3.1059    -2.1293    -1.1639 H       
  28 H28           -1.7108     1.6074     1.3291 H       
  29 H29            2.7911    -4.4266    -3.3302 H       
  30 H30            3.5647    -5.8873    -2.6697 H       
  31 H31            1.9687    -5.3767    -2.0696 H       
  32 H32            5.4519    -3.0914    -1.0951 H       
  33 H33            5.5988    -4.5528    -2.1007 H       
  34 H34            4.8252    -3.0920    -2.7611 H       
  35 H35           -2.2835    -0.1308     1.9180 H       
  36 H36           -2.7609     0.3567     0.2706 H       
  37 H37           -3.4594    -1.8975    -0.2756 H       
  38 H38           -1.8267    -3.7504    -0.3640 H       
  39 H39           -0.8644    -4.0333     1.1108 H       
  40 H40            1.6304     4.1257    -1.2914 H       
  41 H41            1.6735     1.6673    -1.3029 H       
  42 H42           -3.9803    -4.2469     0.6755 H       
  43 H43           -3.0167    -4.7813     2.0734 H       
  44 H44           -4.3233    -3.5931     2.2951 H       
  45 H45           -5.0708    -0.5624     1.0493 H       
  46 H46           -5.2130    -2.2952     1.4310 H       
  47 H47           -4.3672    -1.2030     2.5536 H       
  48 H48            2.8483    -5.3758     0.2689 H       
  49 H49            4.4443    -5.8864    -0.3312 H       
  50 H50            4.2974    -4.4251     0.6744 H       
@<TRIPOS>BOND
   1    1    2 1
   2    1    9 ar
   3    1   21 ar
   4    2    3 1
   5    2    6 2
   6    3    4 1
   7    3   14 1
   8    4    5 2
   9    4   17 1
  10    5    6 1
  11    5    7 1
  12    7    8 am
  13    7   10 2
  14    8   11 1
  15    8   27 1
  16    9   18 ar
  17    9   28 1
  18   11   12 1
  19   11   13 1
  20   11   26 1
  21   12   29 1
  22   12   30 1
  23   12   31 1
  24   13   32 1
  25   13   33 1
  26   13   34 1
  27   14   15 1
  28   14   35 1
  29   14   36 1
  30   15   16 1
  31   15   25 1
  32   15   37 1
  33   16   17 1
  34   16   24 1
  35   17   38 1
  36   17   39 1
  37   18   19 ar
  38   18   23 1
  39   19   20 ar
  40   19   22 1
  41   20   21 ar
  42   20   40 1
  43   21   41 1
  44   24   42 1
  45   24   43 1
  46   24   44 1
  47   25   45 1
  48   25   46 1
  49   25   47 1
  50   26   48 1
  51   26   49 1
  52   26   50 1

#	End of record

