#	Name: ASD03930272
#	Creating user name:	WinNT
#	Creation time:	15. 06. 2019 20:47

#	Modifying user name:	WinNT
#	Modification time:	15. 06. 2019 20:47

#	Program:	/corina/corina34_cracker 3.40 0067  02.08.2006

@<TRIPOS>MOLECULE
ASD03930272
  44   48    0    0    0
SMALL
NO_CHARGES


@<TRIPOS>ATOM
   1 C1            -0.0171     1.4088     0.0098 C.ar    
   2 C2             0.0021    -0.0041     0.0020 C.ar    
   3 C3            -1.1874    -0.7279     0.0137 C.ar    
   4 C4            -2.3958    -0.0577     0.0324 C.ar    
   5 C5            -2.4173     1.3502     0.0365 C.ar    
   6 C6            -1.2404     2.0809     0.0308 C.ar    
   7 N7             1.1608     2.0841     0.0022 N.2     
   8 C8             2.3010     1.4647    -0.0143 C.2     
   9 N9             2.4159     0.1102    -0.0260 N.am    
  10 C10            1.3139    -0.6750    -0.0182 C.2     
  11 O11           -3.5634    -0.7528     0.0484 O.3     
  12 C12           -4.6807    -0.1696    -0.6227 C.3     
  13 N13           -4.8044     1.2427    -0.2078 N.am    
  14 C14           -3.7373     2.0336     0.0537 C.2     
  15 O15            1.4028    -1.8888    -0.0278 O.2     
  16 C16            3.7453    -0.5051    -0.0472 C.3     
  17 C17            4.4954    -0.0554    -1.3026 C.3     
  18 C18            4.5266    -0.0743     1.1956 C.3     
  19 N19            3.8110    -0.5701    -2.4912 N.pl3   
  20 N20            2.8752     0.0370    -3.1366 N.2     
  21 C21            2.5120    -0.7291    -4.1357 C.2     
  22 N22            3.2637    -1.8284    -4.0744 N.2     
  23 N23            4.0521    -1.6993    -3.0616 N.2     
  24 O24           -3.8507     3.2211     0.2870 O.2     
  25 C25           -5.9909    -0.8289    -0.1303 C.3     
  26 C26           -7.0246     0.2986    -0.3988 C.3     
  27 C27           -6.2226     1.5856    -0.1018 C.3     
  28 H28           -1.1657    -1.8077     0.0078 H       
  29 H29           -1.2691     3.1605     0.0348 H       
  30 H30            3.2050     2.0556    -0.0193 H       
  31 H31           -4.5723    -0.2518    -1.7042 H       
  32 H32            3.6433    -1.5903    -0.0542 H       
  33 H33            4.5200     1.0337    -1.3405 H       
  34 H34            5.5146    -0.4410    -1.2746 H       
  35 H35            3.9922    -0.3947     2.0900 H       
  36 H36            5.5157    -0.5321     1.1798 H       
  37 H37            4.6286     1.0109     1.2026 H       
  38 H38            1.7494    -0.5115    -4.8689 H       
  39 H39           -6.2236    -1.7197    -0.7137 H       
  40 H40           -5.9351    -1.0632     0.9328 H       
  41 H41           -7.3532     0.2806    -1.4379 H       
  42 H42           -7.8753     0.2103     0.2770 H       
  43 H43           -6.4451     1.9375     0.9055 H       
  44 H44           -6.4737     2.3560    -0.8309 H       
@<TRIPOS>BOND
   1    1    2 ar
   2    1    7 1
   3    1    6 ar
   4    2    3 ar
   5    2   10 1
   6    3    4 ar
   7    3   28 1
   8    4    5 ar
   9    4   11 1
  10    5    6 ar
  11    5   14 1
  12    6   29 1
  13    7    8 2
  14    8    9 1
  15    8   30 1
  16    9   10 am
  17    9   16 1
  18   10   15 2
  19   11   12 1
  20   12   13 1
  21   12   25 1
  22   12   31 1
  23   13   14 am
  24   13   27 1
  25   14   24 2
  26   16   17 1
  27   16   18 1
  28   16   32 1
  29   17   19 1
  30   17   33 1
  31   17   34 1
  32   18   35 1
  33   18   36 1
  34   18   37 1
  35   19   20 1
  36   19   23 1
  37   20   21 2
  38   21   22 1
  39   21   38 1
  40   22   23 2
  41   25   26 1
  42   25   39 1
  43   25   40 1
  44   26   27 1
  45   26   41 1
  46   26   42 1
  47   27   43 1
  48   27   44 1

#	End of record

