#	Name: ASD01883974
#	Creating user name:	WinNT
#	Creation time:	15. 06. 2019 19:47

#	Modifying user name:	WinNT
#	Modification time:	15. 06. 2019 19:47

#	Program:	/corina/corina34_cracker 3.40 0067  02.08.2006

@<TRIPOS>MOLECULE
ASD01883974
  51   53    0    0    0
SMALL
NO_CHARGES


@<TRIPOS>ATOM
   1 C1            -0.0187     1.5258     0.0104 C.3     
   2 C2             0.0021    -0.0041     0.0020 C.3     
   3 C3             0.7182    -0.4975    -1.2568 C.3     
   4 C4             0.7390    -2.0273    -1.2652 C.3     
   5 N5             1.4247    -2.4998    -2.4705 N.am    
   6 C6             0.7967    -2.7834    -3.7657 C.3     
   7 N7             1.8652    -3.2269    -4.6636 N.pl3   
   8 C8             3.0348    -3.2072    -3.9545 C.2     
   9 N9             4.0102    -3.6049    -4.7499 N.2     
  10 C10            3.5218    -3.8835    -5.9518 C.2     
  11 C11            4.3143    -4.3684    -7.1383 C.3     
  12 C12            2.1615    -3.6524    -5.9258 C.2     
  13 C13            1.2123    -3.8307    -7.0449 C.ar    
  14 C14           -0.0135    -4.4627    -6.8301 C.ar    
  15 C15           -0.8961    -4.6261    -7.8780 C.ar    
  16 C16           -0.5693    -4.1655    -9.1404 C.ar    
  17 C17           -1.5385    -4.3477   -10.2799 C.3     
  18 C18           -2.2992    -3.0414   -10.5163 C.3     
  19 C19           -3.1918    -3.1871   -11.7504 C.3     
  20 C20           -3.1652    -2.7272    -9.2947 C.3     
  21 C21            0.6458    -3.5364    -9.3617 C.ar    
  22 F22            0.9583    -3.0885   -10.5974 F       
  23 C23            1.5358    -3.3626    -8.3194 C.ar    
  24 C24            2.7429    -2.7448    -2.5869 C.2     
  25 O25            3.5645    -2.6080    -1.7006 O.2     
  26 H26            1.0039     1.9031     0.0027 H       
  27 H27           -0.5459     1.8868    -0.8726 H       
  28 H28           -0.5289     1.8773     0.9072 H       
  29 H29            0.5293    -0.3651     0.8851 H       
  30 H30           -1.0205    -0.3814     0.0098 H       
  31 H31            0.1910    -0.1364    -2.1398 H       
  32 H32            1.7408    -0.1202    -1.2645 H       
  33 H33            1.2661    -2.3884    -0.3821 H       
  34 H34           -0.2836    -2.4046    -1.2575 H       
  35 H35            0.0518    -3.5713    -3.6545 H       
  36 H36            0.3294    -1.8807    -4.1593 H       
  37 H37            4.3457    -5.4579    -7.1336 H       
  38 H38            3.8410    -4.0225    -8.0573 H       
  39 H39            5.3295    -3.9754    -7.0823 H       
  40 H40           -0.2706    -4.8235    -5.8451 H       
  41 H41           -1.8445    -5.1154    -7.7120 H       
  42 H42           -0.9911    -4.6178   -11.1829 H       
  43 H43           -2.2452    -5.1400   -10.0327 H       
  44 H44           -1.5882    -2.2307   -10.6759 H       
  45 H45           -3.9028    -3.9978   -11.5908 H       
  46 H46           -3.7337    -2.2565   -11.9188 H       
  47 H47           -2.5749    -3.4110   -12.6207 H       
  48 H48           -3.8761    -3.5379    -9.1352 H       
  49 H49           -2.5292    -2.6234    -8.4156 H       
  50 H50           -3.7070    -1.7966    -9.4631 H       
  51 H51            2.4810    -2.8690    -8.4912 H       
@<TRIPOS>BOND
   1    1    2 1
   2    1   26 1
   3    1   27 1
   4    1   28 1
   5    2    3 1
   6    2   29 1
   7    2   30 1
   8    3    4 1
   9    3   31 1
  10    3   32 1
  11    4    5 1
  12    4   33 1
  13    4   34 1
  14    5   24 am
  15    5    6 1
  16    6    7 1
  17    6   35 1
  18    6   36 1
  19    7   12 1
  20    7    8 1
  21    8    9 2
  22    8   24 1
  23    9   10 1
  24   10   11 1
  25   10   12 2
  26   11   37 1
  27   11   38 1
  28   11   39 1
  29   12   13 1
  30   13   23 ar
  31   13   14 ar
  32   14   15 ar
  33   14   40 1
  34   15   16 ar
  35   15   41 1
  36   16   17 1
  37   16   21 ar
  38   17   18 1
  39   17   42 1
  40   17   43 1
  41   18   19 1
  42   18   20 1
  43   18   44 1
  44   19   45 1
  45   19   46 1
  46   19   47 1
  47   20   48 1
  48   20   49 1
  49   20   50 1
  50   21   22 1
  51   21   23 ar
  52   23   51 1
  53   24   25 2

#	End of record

