#	Name: ASD03081108
#	Creating user name:	WinNT
#	Creation time:	15. 06. 2019 20:26

#	Modifying user name:	WinNT
#	Modification time:	15. 06. 2019 20:26

#	Program:	/corina/corina34_cracker 3.40 0067  02.08.2006

@<TRIPOS>MOLECULE
ASD03081108
  14   14    0    0    0
SMALL
NO_CHARGES


@<TRIPOS>ATOM
   1 C1            -0.0169     1.3934     0.0097 C.ar    
   2 C2             0.0021    -0.0041     0.0020 C.ar    
   3 C3             1.2509    -0.6384    -0.0133 C.ar    
   4 C4             2.3822     0.1613    -0.0198 C.ar    
   5 N5             2.2608     1.4745    -0.0116 N.ar    
   6 N6             1.1203     2.0616     0.0024 N.ar    
   7 C7            -1.2552    -0.7874     0.0103 C.2     
   8 O8            -1.2144    -2.0019     0.0034 O.2     
   9 N9            -2.4443    -0.1532     0.0255 N.am    
  10 H10           -0.9578     1.9235     0.0170 H       
  11 H11            1.3292    -1.7155    -0.0195 H       
  12 H12            3.3631    -0.2905    -0.0313 H       
  13 H13           -2.4768     0.8162     0.0310 H       
  14 H14           -3.2675    -0.6662     0.0309 H       
@<TRIPOS>BOND
   1    1    2 ar
   2    1    6 ar
   3    1   10 1
   4    2    3 ar
   5    2    7 1
   6    3    4 ar
   7    3   11 1
   8    4    5 ar
   9    4   12 1
  10    5    6 ar
  11    7    8 2
  12    7    9 am
  13    9   13 1
  14    9   14 1

#	End of record

