#	Name: ASD01470011
#	Creating user name:	WinNT
#	Creation time:	15. 06. 2019 19:21

#	Modifying user name:	WinNT
#	Modification time:	15. 06. 2019 19:21

#	Program:	/corina/corina34_cracker 3.40 0067  02.08.2006

@<TRIPOS>MOLECULE
ASD01470011
 145  147    0    0    0
SMALL
NO_CHARGES


@<TRIPOS>ATOM
   1 C1             1.9217     1.9199    -0.4502 C.ar    
   2 C2             2.0001     0.5416    -0.3797 C.ar    
   3 C3             3.2289    -0.0860    -0.4644 C.ar    
   4 C4             4.3792     0.6647    -0.6199 C.ar    
   5 C5             4.3007     2.0429    -0.6913 C.ar    
   6 C6             3.0721     2.6706    -0.6052 C.ar    
   7 C7             0.7461    -0.2768    -0.2102 C.3     
   8 C8             0.1810    -0.6349    -1.5861 C.3     
   9 N9            -0.2439     0.5874    -2.2729 N.am    
  10 C10           -0.2953     0.6208    -3.6192 C.2     
  11 C11           -0.7323     1.8782    -4.3256 C.3     
  12 O12            0.0101    -0.3611    -4.2623 O.2     
  13 N13           -0.7035     1.6598    -5.7740 N.am    
  14 C14           -2.1547     2.2385    -3.8924 C.3     
  15 C15           -3.1032     1.1519    -4.3290 C.2     
  16 N16           -4.4281     1.2920    -4.1253 N.am    
  17 O17           -2.6744     0.1514    -4.8637 O.2     
  18 C18           -0.6127     2.7112    -6.6123 C.2     
  19 O19           -0.6451     3.8413    -6.1735 O.2     
  20 C20           -0.4708     2.4825    -8.0951 C.3     
  21 C21           -0.3890     3.8308    -8.8136 C.3     
  22 C22           -0.2450     3.5986   -10.3190 C.3     
  23 C23           -0.1631     4.9469   -11.0375 C.3     
  24 C24            0.7402     9.4115   -19.9330 C.3     
  25 C25            0.8842     9.1793   -21.4384 C.3     
  26 C26            1.1079    10.2989   -23.6397 C.2     
  27 O27            1.1403     9.1687   -24.0785 O.2     
  28 C28            0.8164    12.3298   -26.6651 C.2     
  29 N29            0.8428    12.3502   -28.0125 N.am    
  30 O30            0.3741    13.2786   -26.0528 O.2     
  31 C31            0.3372    13.5186   -28.7374 C.3     
  32 C32            1.4437    14.5696   -28.8460 C.3     
  33 C33           -0.0981    13.1029   -30.1190 C.2     
  34 C34            1.7988    15.0825   -27.4489 C.3     
  35 C35            2.9884    16.0399   -27.5442 C.3     
  36 C36            0.5968    15.8201   -26.8557 C.3     
  37 O37            0.0039    11.9447   -30.4641 O.2     
  38 N38           -0.6009    14.0182   -30.9710 N.am    
  39 C39            0.9661    10.5276   -22.1569 C.3     
  40 C40           -1.0840    14.4483   -35.4991 C.ar    
  41 C41           -1.4803    14.0673   -36.7663 C.ar    
  42 C42           -2.7863    13.6546   -36.9888 C.ar    
  43 C43           -3.6909    13.6258   -35.9370 C.ar    
  44 C44           -3.2894    14.0078   -34.6717 C.ar    
  45 C45           -1.9874    14.4186   -34.4527 C.ar    
  46 C46           -1.0241    13.6141   -32.3141 C.3     
  47 C47           -1.5521    14.8343   -33.0711 C.3     
  48 N48            1.1987    11.3503   -24.4780 N.am    
  49 C49            1.3366    11.1279   -25.9195 C.3     
  50 C50            2.8119    10.9134   -26.2636 C.3     
  51 O51            2.9463    10.6965   -27.6696 O.3     
  52 C52            3.3399     9.6932   -25.5066 C.3     
  53 O53           -3.1788    13.2798   -38.2345 O.3     
  54 C54           -3.2662    11.5858   -39.9029 C.ar    
  55 C55           -2.8990    10.3297   -40.3453 C.ar    
  56 C56           -2.0863     9.5301   -39.5630 C.ar    
  57 C57           -1.6393     9.9849   -38.3361 C.ar    
  58 C58           -2.0032    11.2403   -37.8892 C.ar    
  59 C59           -2.8187    12.0448   -38.6722 C.ar    
  60 C60           -1.0014    -1.5544    -1.4197 C.2     
  61 O61           -2.0875    -1.2227    -1.8324 O.2     
  62 O62           -0.8480    -2.7419    -0.8130 O.3     
  63 C63           -0.0191     4.7147   -12.5429 C.3     
  64 C64            0.0627     6.0631   -13.2614 C.3     
  65 C65            0.2067     5.8309   -14.7668 C.3     
  66 C66            0.2885     7.1792   -15.4852 C.3     
  67 C67            0.4325     6.9470   -16.9906 C.3     
  68 C68            0.5144     8.2953   -17.7091 C.3     
  69 C69            0.6584     8.0631   -19.2145 C.3     
  70 H70            0.9613     2.4100    -0.3885 H       
  71 H71            3.2902    -1.1628    -0.4087 H       
  72 H72            5.3392     0.1744    -0.6854 H       
  73 H73            5.1994     2.6295    -0.8124 H       
  74 H74            3.0107     3.7474    -0.6613 H       
  75 H75            0.9798    -1.1908     0.3358 H       
  76 H76            0.0081     0.3005     0.3467 H       
  77 H77            0.9496    -1.1346    -2.1758 H       
  78 H78           -0.4881     1.3727    -1.7586 H       
  79 H79           -0.0564     2.6935    -4.0676 H       
  80 H80           -0.7498     0.7585    -6.1296 H       
  81 H81           -2.1900     2.3373    -2.8074 H       
  82 H82           -2.4467     3.1823    -4.3528 H       
  83 H83           -4.7711     2.0922    -3.6976 H       
  84 H84           -5.0387     0.5926    -4.4063 H       
  85 H85            0.4371     1.9115    -8.2895 H       
  86 H86           -1.3345     1.9274    -8.4614 H       
  87 H87           -1.2969     4.4018    -8.6192 H       
  88 H88            0.4747     4.3858    -8.4473 H       
  89 H89            0.6629     3.0276   -10.5134 H       
  90 H90           -1.1086     3.0436   -10.6853 H       
  91 H91           -1.0711     5.5179   -10.8431 H       
  92 H92            0.7005     5.5020   -10.6712 H       
  93 H93            1.6039     9.9665   -19.5667 H       
  94 H94           -0.1677     9.9824   -19.7386 H       
  95 H95            1.7921     8.6083   -21.6328 H       
  96 H96            0.0206     8.6242   -21.8047 H       
  97 H97            1.1966    11.5913   -28.5022 H       
  98 H98           -0.5125    13.9398   -28.2001 H       
  99 H99            2.3260    14.1223   -29.3039 H       
 100 H100           1.0969    15.4002   -29.4607 H       
 101 H101           2.0606    14.2404   -26.8083 H       
 102 H102           2.7266    16.8821   -28.1848 H       
 103 H103           3.2414    16.4053   -26.5489 H       
 104 H104           3.8448    15.5144   -27.9669 H       
 105 H105           0.3350    16.6623   -27.4962 H       
 106 H106          -0.2507    15.1381   -26.7878 H       
 107 H107           0.8497    16.1856   -25.8604 H       
 108 H108          -0.6825    14.9445   -30.6950 H       
 109 H109           0.0581    11.0986   -21.9625 H       
 110 H110           1.8297    11.0826   -21.7906 H       
 111 H111          -0.0665    14.7654   -35.3245 H       
 112 H112          -0.7744    14.0910   -37.5834 H       
 113 H113          -4.7080    13.3053   -36.1076 H       
 114 H114          -3.9932    13.9858   -33.8528 H       
 115 H115          -0.1744    13.1929   -32.8514 H       
 116 H116          -1.8124    12.8653   -32.2367 H       
 117 H117          -0.7638    15.5831   -33.1485 H       
 118 H118          -2.4018    15.2555   -32.5338 H       
 119 H119           1.1728    12.2541   -24.1270 H       
 120 H120           0.7644    10.2460   -26.2075 H       
 121 H121           3.3841    11.7953   -25.9756 H       
 122 H122           2.4621     9.9261   -27.9969 H       
 123 H123           2.7677     8.8113   -25.7945 H       
 124 H124           4.3909     9.5403   -25.7517 H       
 125 H125           3.2373     9.8586   -24.4341 H       
 126 H126          -3.8973    12.2117   -40.5162 H       
 127 H127          -3.2473     9.9718   -41.3029 H       
 128 H128          -1.8003     8.5484   -39.9107 H       
 129 H129          -1.0052     9.3581   -37.7267 H       
 130 H130          -1.6538    11.5951   -36.9308 H       
 131 H131          -1.6352    -3.2972    -0.7296 H       
 132 H132           0.8888     4.1438   -12.7372 H       
 133 H133          -0.8828     4.1597   -12.9092 H       
 134 H134          -0.8452     6.6340   -13.0670 H       
 135 H135           0.9264     6.6181   -12.8951 H       
 136 H136           1.1146     5.2599   -14.9611 H       
 137 H137          -0.6570     5.2758   -15.1330 H       
 138 H138          -0.6194     7.7502   -15.2909 H       
 139 H139           1.1522     7.7342   -15.1190 H       
 140 H140           1.3405     6.3760   -17.1850 H       
 141 H141          -0.4311     6.3920   -17.3569 H       
 142 H142          -0.3935     8.8663   -17.5148 H       
 143 H143           1.3780     8.8504   -17.3428 H       
 144 H144          -0.2053     7.5081   -19.5808 H       
 145 H145           1.5663     7.4922   -19.4089 H       
@<TRIPOS>BOND
   1    1    2 ar
   2    1    6 ar
   3    1   70 1
   4    2    3 ar
   5    2    7 1
   6    3    4 ar
   7    3   71 1
   8    4    5 ar
   9    4   72 1
  10    5    6 ar
  11    5   73 1
  12    6   74 1
  13    7    8 1
  14    7   75 1
  15    7   76 1
  16    8    9 1
  17    8   60 1
  18    8   77 1
  19    9   10 am
  20    9   78 1
  21   10   11 1
  22   10   12 2
  23   11   13 1
  24   11   14 1
  25   11   79 1
  26   13   18 am
  27   13   80 1
  28   14   15 1
  29   14   81 1
  30   14   82 1
  31   15   16 am
  32   15   17 2
  33   16   83 1
  34   16   84 1
  35   18   19 2
  36   18   20 1
  37   20   21 1
  38   20   85 1
  39   20   86 1
  40   21   22 1
  41   21   87 1
  42   21   88 1
  43   22   23 1
  44   22   89 1
  45   22   90 1
  46   23   63 1
  47   23   91 1
  48   23   92 1
  49   24   25 1
  50   24   69 1
  51   24   93 1
  52   24   94 1
  53   25   39 1
  54   25   95 1
  55   25   96 1
  56   26   27 2
  57   26   48 am
  58   26   39 1
  59   28   29 am
  60   28   30 2
  61   28   49 1
  62   29   31 1
  63   29   97 1
  64   31   32 1
  65   31   33 1
  66   31   98 1
  67   32   34 1
  68   32   99 1
  69   32  100 1
  70   33   37 2
  71   33   38 am
  72   34   35 1
  73   34   36 1
  74   34  101 1
  75   35  102 1
  76   35  103 1
  77   35  104 1
  78   36  105 1
  79   36  106 1
  80   36  107 1
  81   38   46 1
  82   38  108 1
  83   39  109 1
  84   39  110 1
  85   40   41 ar
  86   40   45 ar
  87   40  111 1
  88   41   42 ar
  89   41  112 1
  90   42   43 ar
  91   42   53 1
  92   43   44 ar
  93   43  113 1
  94   44   45 ar
  95   44  114 1
  96   45   47 1
  97   46   47 1
  98   46  115 1
  99   46  116 1
 100   47  117 1
 101   47  118 1
 102   48   49 1
 103   48  119 1
 104   49   50 1
 105   49  120 1
 106   50   51 1
 107   50   52 1
 108   50  121 1
 109   51  122 1
 110   52  123 1
 111   52  124 1
 112   52  125 1
 113   53   59 1
 114   54   55 ar
 115   54   59 ar
 116   54  126 1
 117   55   56 ar
 118   55  127 1
 119   56   57 ar
 120   56  128 1
 121   57   58 ar
 122   57  129 1
 123   58   59 ar
 124   58  130 1
 125   60   61 2
 126   60   62 1
 127   62  131 1
 128   63   64 1
 129   63  132 1
 130   63  133 1
 131   64   65 1
 132   64  134 1
 133   64  135 1
 134   65   66 1
 135   65  136 1
 136   65  137 1
 137   66   67 1
 138   66  138 1
 139   66  139 1
 140   67   68 1
 141   67  140 1
 142   67  141 1
 143   68   69 1
 144   68  142 1
 145   68  143 1
 146   69  144 1
 147   69  145 1

#	End of record

