#	Name: ASD01911809
#	Creating user name:	WinNT
#	Creation time:	15. 06. 2019 19:58

#	Modifying user name:	WinNT
#	Modification time:	15. 06. 2019 19:58

#	Program:	/corina/corina34_cracker 3.40 0067  02.08.2006

@<TRIPOS>MOLECULE
ASD01911809
  37   39    0    0    0
SMALL
NO_CHARGES


@<TRIPOS>ATOM
   1 C1             0.1449     0.8357    -1.0282 C.2     
   2 N2             0.0464    -0.3415    -0.3321 N.pl3   
   3 C3             1.2091    -1.0302    -0.0067 C.2     
   4 C4             2.4533    -0.4830    -0.4110 C.2     
   5 C5             2.4534     0.6865    -1.0964 C.2     
   6 N6             1.3016     1.3108    -1.3839 N.2     
   7 C7             0.8703    -2.1576     0.6769 C.2     
   8 C8            -0.5443    -2.1777     0.7837 C.2     
   9 C9            -1.0202    -1.0357     0.1465 C.2     
  10 C10           -1.3533    -3.2086     1.4418 C.2     
  11 O11           -2.5651    -3.1084     1.4641 O.2     
  12 N12           -2.3490    -0.6698     0.0218 N.pl3   
  13 C13           -2.8404     0.4355     0.7286 C.ar    
  14 C14           -4.1914     0.7612     0.6591 C.ar    
  15 C15           -4.6753     1.8512     1.3569 C.ar    
  16 C16           -3.8124     2.6213     2.1274 C.ar    
  17 C17           -2.4638     2.2954     2.1956 C.ar    
  18 C18           -1.9808     1.2025     1.5028 C.ar    
  19 S19           -4.4289     4.0114     3.0174 S.3     
  20 F20           -5.0294     0.0122    -0.0906 F       
  21 C21           -2.9474     4.6592     3.8396 C.3     
  22 O22           -0.7534    -4.2679     2.0223 O.3     
  23 C23           -1.6166    -5.2492     2.6550 C.3     
  24 H24           -0.7536     1.3750    -1.2891 H       
  25 H25            3.3799    -0.9865    -0.1778 H       
  26 H26            3.3902     1.1205    -1.4133 H       
  27 H27            1.5521    -2.8994     1.0658 H       
  28 H28           -2.9401    -1.1787    -0.5549 H       
  29 H29           -5.7238     2.1049     1.3032 H       
  30 H30           -1.7934     2.8946     2.7939 H       
  31 H31           -0.9330     0.9470     1.5602 H       
  32 H32           -2.5311     3.8936     4.4944 H       
  33 H33           -2.2074     4.9369     3.0891 H       
  34 H34           -3.2134     5.5363     4.4295 H       
  35 H35           -2.1934    -4.7696     3.4457 H       
  36 H36           -2.2959    -5.6680     1.9125 H       
  37 H37           -1.0083    -6.0468     3.0816 H       
@<TRIPOS>BOND
   1    1    2 1
   2    1    6 2
   3    1   24 1
   4    2    3 1
   5    2    9 1
   6    3    4 1
   7    3    7 2
   8    4    5 2
   9    4   25 1
  10    5    6 1
  11    5   26 1
  12    7    8 1
  13    7   27 1
  14    8    9 2
  15    8   10 1
  16    9   12 1
  17   10   11 2
  18   10   22 1
  19   12   13 1
  20   12   28 1
  21   13   14 ar
  22   13   18 ar
  23   14   15 ar
  24   14   20 1
  25   15   16 ar
  26   15   29 1
  27   16   17 ar
  28   16   19 1
  29   17   18 ar
  30   17   30 1
  31   18   31 1
  32   19   21 1
  33   21   32 1
  34   21   33 1
  35   21   34 1
  36   22   23 1
  37   23   35 1
  38   23   36 1
  39   23   37 1

#	End of record

