#	Name: ASD08070689
#	Creating user name:	WinNT
#	Creation time:	15. 06. 2019 21:15

#	Modifying user name:	WinNT
#	Modification time:	15. 06. 2019 21:15

#	Program:	/corina/corina34_cracker 3.40 0067  02.08.2006

@<TRIPOS>MOLECULE
ASD08070689
  26   25    0    0    0
SMALL
NO_CHARGES


@<TRIPOS>ATOM
   1 C1            -0.0187     1.5258     0.0104 C.3     
   2 C2             0.0021    -0.0041     0.0020 C.3     
   3 C3            -1.4266    -0.5342     0.1385 C.3     
   4 C4            -1.3956    -2.0595     0.2555 C.3     
   5 C5            -0.6905    -2.4572     1.5537 C.3     
   6 N6             0.5820    -0.4790    -1.2614 N.3     
   7 C7            -2.8272    -2.5993     0.2666 C.3     
   8 O8             1.3220     2.0204     0.0003 O.3     
   9 C9             1.4155     3.4463     0.0071 C.3     
  10 H10           -0.5459     1.8868    -0.8726 H       
  11 H11           -0.5289     1.8773     0.9072 H       
  12 H12            0.6044    -0.3639     0.8362 H       
  13 H13           -1.8876    -0.1107     1.0309 H       
  14 H14           -2.0055    -0.2489    -0.7398 H       
  15 H15           -0.8560    -2.4781    -0.5940 H       
  16 H16           -0.6684    -3.5438     1.6370 H       
  17 H17            0.3294    -2.0726     1.5458 H       
  18 H18           -1.2301    -2.0386     2.4032 H       
  19 H19            0.6662    -1.4844    -1.2652 H       
  20 H20            0.0411    -0.1584    -2.0506 H       
  21 H21           -3.3295    -2.3160    -0.6584 H       
  22 H22           -2.8051    -3.6859     0.3498 H       
  23 H23           -3.3668    -2.1807     1.1161 H       
  24 H24            0.9180     3.8472    -0.8761 H       
  25 H25            0.9350     3.8377     0.9038 H       
  26 H26            2.4646     3.7417    -0.0014 H       
@<TRIPOS>BOND
   1    1    2 1
   2    1    8 1
   3    1   10 1
   4    1   11 1
   5    2    3 1
   6    2    6 1
   7    2   12 1
   8    3    4 1
   9    3   13 1
  10    3   14 1
  11    4    5 1
  12    4    7 1
  13    4   15 1
  14    5   16 1
  15    5   17 1
  16    5   18 1
  17    6   19 1
  18    6   20 1
  19    7   21 1
  20    7   22 1
  21    7   23 1
  22    8    9 1
  23    9   24 1
  24    9   25 1
  25    9   26 1

#	End of record

