#	Name: ASD01148859
#	Creating user name:	WinNT
#	Creation time:	15. 06. 2019 19:03

#	Modifying user name:	WinNT
#	Modification time:	15. 06. 2019 19:03

#	Program:	/corina/corina34_cracker 3.40 0067  02.08.2006

@<TRIPOS>MOLECULE
ASD01148859
  41   42    0    0    0
SMALL
NO_CHARGES


@<TRIPOS>ATOM
   1 C1            -0.0184     1.5028     0.0103 C.2     
   2 C2             0.0021    -0.0041     0.0020 C.3     
   3 C3             1.4513    -0.4944    -0.0145 C.3     
   4 C4             2.1073    -0.0797    -1.3063 C.2     
   5 O5             1.0197     2.1211     0.0037 O.2     
   6 O6            -1.1898     2.1580     0.0194 O.3     
   7 O7             1.4777     0.5463    -2.1323 O.2     
   8 C8             3.5111    -0.4342    -1.5652 C.ar    
   9 C9             4.1233    -0.0509    -2.7633 C.ar    
  10 C10            5.4392    -0.3861    -2.9988 C.ar    
  11 C11            6.1554    -1.1015    -2.0526 C.ar    
  12 C12            5.5554    -1.4849    -0.8639 C.ar    
  13 C13            4.2422    -1.1513    -0.6120 C.ar    
  14 Cl14           7.8123    -1.5199    -2.3582 Cl      
  15 C15           -0.6897    -0.5226     1.2364 C.2     
  16 C16           -2.1371    -0.7874     1.2123 C.ar    
  17 C17           -2.7827    -1.2687     2.3558 C.ar    
  18 C18           -4.1393    -1.5139     2.3254 C.ar    
  19 C19           -4.8618    -1.2850     1.1673 C.ar    
  20 C20           -4.2301    -0.8092     0.0315 C.ar    
  21 C21           -2.8752    -0.5536     0.0476 C.ar    
  22 O22           -0.0537    -0.7217     2.2494 O.2     
  23 C23           -1.1335     3.6089     0.0270 C.3     
  24 C24           -2.5551     4.1744     0.0369 C.3     
  25 H25           -0.5153    -0.3696    -0.8850 H       
  26 H26            1.9924    -0.0570     0.8246 H       
  27 H27            1.4682    -1.5810     0.0691 H       
  28 H28            3.5661     0.5061    -3.5019 H       
  29 H29            5.9131    -0.0909    -3.9233 H       
  30 H30            6.1196    -2.0426    -0.1311 H       
  31 H31            3.7771    -1.4469     0.3168 H       
  32 H32           -2.2202    -1.4482     3.2601 H       
  33 H33           -4.6392    -1.8859     3.2075 H       
  34 H34           -5.9241    -1.4789     1.1498 H       
  35 H35           -4.8006    -0.6337    -0.8686 H       
  36 H36           -2.3845    -0.1778    -0.8380 H       
  37 H37           -0.6017     3.9472     0.9164 H       
  38 H38           -0.6102     3.9569    -0.8636 H       
  39 H39           -3.0869     3.8361    -0.8525 H       
  40 H40           -3.0784     3.8265     0.9275 H       
  41 H41           -2.5128     5.2636     0.0426 H       
@<TRIPOS>BOND
   1    1    2 1
   2    1    5 2
   3    1    6 1
   4    2    3 1
   5    2   15 1
   6    2   25 1
   7    3    4 1
   8    3   26 1
   9    3   27 1
  10    4    7 2
  11    4    8 1
  12    6   23 1
  13    8    9 ar
  14    8   13 ar
  15    9   10 ar
  16    9   28 1
  17   10   11 ar
  18   10   29 1
  19   11   12 ar
  20   11   14 1
  21   12   13 ar
  22   12   30 1
  23   13   31 1
  24   15   16 1
  25   15   22 2
  26   16   17 ar
  27   16   21 ar
  28   17   18 ar
  29   17   32 1
  30   18   19 ar
  31   18   33 1
  32   19   20 ar
  33   19   34 1
  34   20   21 ar
  35   20   35 1
  36   21   36 1
  37   23   24 1
  38   23   37 1
  39   23   38 1
  40   24   39 1
  41   24   40 1
  42   24   41 1

#	End of record

