#	Name: ASD01310005
#	Creating user name:	WinNT
#	Creation time:	15. 06. 2019 19:15

#	Modifying user name:	WinNT
#	Modification time:	15. 06. 2019 19:15

#	Program:	/corina/corina34_cracker 3.40 0067  02.08.2006

@<TRIPOS>MOLECULE
ASD01310005
  56   59    0    0    0
SMALL
NO_CHARGES


@<TRIPOS>ATOM
   1 N1             0.4966    -0.5318    -0.2215 N.3     
   2 C2             0.0075    -1.8912     0.1311 C.3     
   3 C3            -1.4915    -1.7680     0.4482 C.3     
   4 C4            -2.2318    -1.3294    -0.8185 C.3     
   5 C5            -1.5942    -0.0527    -1.3740 C.3     
   6 C6            -0.0882    -0.2922    -1.5676 C.3     
   7 C7             0.0854    -1.6411    -2.3028 C.3     
   8 C8             0.1487    -2.6977    -1.1803 C.3     
   9 O9            -3.6251    -1.0741    -0.4997 O.3     
  10 C10           -4.5259    -1.2881    -1.4788 C.2     
  11 O11           -4.1572    -1.6772    -2.5686 O.2     
  12 C12           -6.3948    -0.8549    -3.6219 C.2     
  13 O13           -7.2368    -1.0675    -4.6524 O.3     
  14 O14           -5.2697    -0.4483    -3.8310 O.2     
  15 C15           -7.8889    -0.3549    -6.8883 C.3     
  16 C16           -6.7313    -0.7893    -5.9848 C.3     
  17 C17           -6.0760    -2.0506    -6.5547 C.3     
  18 C18           -5.6787    -1.7880    -8.0161 C.3     
  19 N19           -6.9339    -1.5556    -8.7792 N.3     
  20 C20           -7.3688    -0.2073    -8.3272 C.3     
  21 C21           -6.0612     0.6161    -8.2752 C.3     
  22 C22           -4.9445    -0.4284    -8.0696 C.3     
  23 C23            1.9644    -0.4969    -0.2714 C.3     
  24 C24           -6.6806    -1.5695   -10.2261 C.3     
  25 C25           -5.9602    -1.0497    -1.2269 C.2     
  26 C26           -6.8400    -1.1161    -2.2395 C.2     
  27 H27            0.5672    -2.3296     0.9573 H       
  28 H28           -1.8751    -2.7330     0.7796 H       
  29 H29           -1.6389    -1.0257     1.2327 H       
  30 H30           -2.1707    -2.1201    -1.5663 H       
  31 H31           -2.0504     0.1962    -2.3321 H       
  32 H32           -1.7461     0.7668    -0.6715 H       
  33 H33            0.3957     0.5354    -2.0863 H       
  34 H34           -0.7677    -1.8305    -2.9544 H       
  35 H35            1.0111    -1.6431    -2.8783 H       
  36 H36            1.1055    -3.2192    -1.2038 H       
  37 H37           -0.6732    -3.4067    -1.2800 H       
  38 H38           -8.6764    -1.1081    -6.8603 H       
  39 H39           -8.2830     0.6008    -6.5427 H       
  40 H40           -5.9928     0.0107    -5.9319 H       
  41 H41           -5.1871    -2.2949    -5.9730 H       
  42 H42           -6.7819    -2.8800    -6.5117 H       
  43 H43           -5.0776    -2.5976    -8.4300 H       
  44 H44           -8.1152     0.2293    -8.9908 H       
  45 H45           -5.9123     1.1511    -9.2131 H       
  46 H46           -6.0859     1.3147    -7.4388 H       
  47 H47           -4.4200    -0.2434    -7.1321 H       
  48 H48           -4.2463    -0.4070    -8.9064 H       
  49 H49            2.3192    -1.2019    -1.0231 H       
  50 H50            2.2953     0.5086    -0.5313 H       
  51 H51            2.3677    -0.7715     0.7033 H       
  52 H52           -6.2707    -2.5377   -10.5139 H       
  53 H53           -7.6150    -1.3973   -10.7602 H       
  54 H54           -5.9681    -0.7840   -10.4778 H       
  55 H55           -6.3025    -0.8219    -0.2282 H       
  56 H56           -7.8732    -1.3606    -2.0419 H       
@<TRIPOS>BOND
   1    1    2 1
   2    1   23 1
   3    1    6 1
   4    2    3 1
   5    2    8 1
   6    2   27 1
   7    3    4 1
   8    3   28 1
   9    3   29 1
  10    4    5 1
  11    4    9 1
  12    4   30 1
  13    5    6 1
  14    5   31 1
  15    5   32 1
  16    6    7 1
  17    6   33 1
  18    7    8 1
  19    7   34 1
  20    7   35 1
  21    8   36 1
  22    8   37 1
  23    9   10 1
  24   10   11 2
  25   10   25 1
  26   12   13 1
  27   12   14 2
  28   12   26 1
  29   13   16 1
  30   15   16 1
  31   15   20 1
  32   15   38 1
  33   15   39 1
  34   16   17 1
  35   16   40 1
  36   17   18 1
  37   17   41 1
  38   17   42 1
  39   18   22 1
  40   18   19 1
  41   18   43 1
  42   19   20 1
  43   19   24 1
  44   20   21 1
  45   20   44 1
  46   21   22 1
  47   21   45 1
  48   21   46 1
  49   22   47 1
  50   22   48 1
  51   23   49 1
  52   23   50 1
  53   23   51 1
  54   24   52 1
  55   24   53 1
  56   24   54 1
  57   25   26 2
  58   25   55 1
  59   26   56 1

#	End of record

