#	Name: ASD01883346
#	Creating user name:	WinNT
#	Creation time:	15. 06. 2019 19:46

#	Modifying user name:	WinNT
#	Modification time:	15. 06. 2019 19:46

#	Program:	/corina/corina34_cracker 3.40 0067  02.08.2006

@<TRIPOS>MOLECULE
ASD01883346
  53   55    0    0    0
SMALL
NO_CHARGES


@<TRIPOS>ATOM
   1 N1            -0.0661     1.4274    -0.0470 N.am    
   2 C2            -0.0163     0.0826    -0.0709 C.2     
   3 C3            -1.2152    -0.6684    -0.0446 C.2     
   4 C4            -2.4407     0.0180     0.0062 C.2     
   5 C5            -2.4273     1.4252     0.0290 C.2     
   6 C6            -1.2514     2.0896     0.0077 C.2     
   7 O7             1.0606    -0.4878    -0.1154 O.2     
   8 C8            -1.1807    -2.0997    -0.0699 C.1     
   9 N9            -1.1533    -3.2352    -0.0899 N.1     
  10 N10           -3.6315    -0.6730     0.0327 N.pl3   
  11 C11            1.1829     2.1926    -0.0746 C.3     
  12 C12            1.5713     2.4828    -1.5258 C.3     
  13 C13           -4.5269    -0.4842     1.0922 C.ar    
  14 C14            2.8757     3.2818    -1.5546 C.3     
  15 C15            3.3298     3.4647    -3.0042 C.3     
  16 C16            2.6482     4.6528    -0.9146 C.3     
  17 C17           -4.1564     0.2884     2.1853 C.ar    
  18 C18           -5.0394     0.4745     3.2301 C.ar    
  19 C19           -6.2984    -0.1104     3.1879 C.ar    
  20 C20           -6.6691    -0.8826     2.0946 C.ar    
  21 C21           -5.7878    -1.0648     1.0476 C.ar    
  22 N22           -7.1932     0.0779     4.2470 N.3     
  23 C23           -8.4600    -0.6253     3.9979 C.3     
  24 C24           -9.3846    -0.4427     5.2043 C.3     
  25 O25           -9.5785     0.9540     5.4429 O.3     
  26 C26           -8.3652     1.6697     5.6900 C.3     
  27 C27           -7.4302     1.5085     4.4884 C.3     
  28 H28           -3.3569     1.9736     0.0680 H       
  29 H29           -1.2536     3.1694     0.0259 H       
  30 H30           -3.8499    -1.2905    -0.6828 H       
  31 H31            1.0450     3.1327     0.4595 H       
  32 H32            1.9735     1.6150     0.4045 H       
  33 H33            1.7092     1.5427    -2.0599 H       
  34 H34            0.7807     3.0603    -2.0049 H       
  35 H35            3.6436     2.7441    -0.9984 H       
  36 H36            2.5620     4.0024    -3.5604 H       
  37 H37            4.2591     4.0340    -3.0247 H       
  38 H38            3.4919     2.4880    -3.4601 H       
  39 H39            1.8803     5.1905    -1.4708 H       
  40 H40            2.3247     4.5225     0.1181 H       
  41 H41            3.5775     5.2221    -0.9351 H       
  42 H42           -3.1774     0.7432     2.2181 H       
  43 H43           -4.7511     1.0747     4.0805 H       
  44 H44           -7.6480    -1.3377     2.0620 H       
  45 H45           -6.0761    -1.6652     0.1974 H       
  46 H46           -8.9363    -0.2129     3.1085 H       
  47 H47           -8.2635    -1.6868     3.8472 H       
  48 H48          -10.3461    -0.9141     5.0006 H       
  49 H49           -8.9319    -0.9026     6.0828 H       
  50 H50           -8.5895     2.7262     5.8375 H       
  51 H51           -7.8829     1.2712     6.5825 H       
  52 H52           -6.4821     2.0046     4.6959 H       
  53 H53           -7.8902     1.9551     3.6069 H       
@<TRIPOS>BOND
   1    1    2 am
   2    1   11 1
   3    1    6 1
   4    2    3 1
   5    2    7 2
   6    3    4 2
   7    3    8 1
   8    4    5 1
   9    4   10 1
  10    5    6 2
  11    5   28 1
  12    6   29 1
  13    8    9 3
  14   10   13 1
  15   10   30 1
  16   11   12 1
  17   11   31 1
  18   11   32 1
  19   12   14 1
  20   12   33 1
  21   12   34 1
  22   13   17 ar
  23   13   21 ar
  24   14   15 1
  25   14   16 1
  26   14   35 1
  27   15   36 1
  28   15   37 1
  29   15   38 1
  30   16   39 1
  31   16   40 1
  32   16   41 1
  33   17   18 ar
  34   17   42 1
  35   18   19 ar
  36   18   43 1
  37   19   20 ar
  38   19   22 1
  39   20   21 ar
  40   20   44 1
  41   21   45 1
  42   22   23 1
  43   22   27 1
  44   23   24 1
  45   23   46 1
  46   23   47 1
  47   24   25 1
  48   24   48 1
  49   24   49 1
  50   25   26 1
  51   26   27 1
  52   26   50 1
  53   26   51 1
  54   27   52 1
  55   27   53 1

#	End of record

