#	Name: ASD01941089
#	Creating user name:	WinNT
#	Creation time:	15. 06. 2019 20:13

#	Modifying user name:	WinNT
#	Modification time:	15. 06. 2019 20:13

#	Program:	/corina/corina34_cracker 3.40 0067  02.08.2006

@<TRIPOS>MOLECULE
ASD01941089
  47   49    0    0    0
SMALL
NO_CHARGES


@<TRIPOS>ATOM
   1 C1             0.3754     1.0722    -0.3631 C.ar    
   2 C2            -0.3716     0.0234    -0.8859 C.ar    
   3 C3            -1.3817    -0.5498    -0.1327 C.ar    
   4 C4            -1.6548    -0.0826     1.1460 C.ar    
   5 C5            -0.9238     0.9556     1.6781 C.ar    
   6 C6             0.1034     1.5411     0.9322 C.ar    
   7 F7            -2.1059    -1.5689    -0.6447 F       
   8 F8            -0.1123    -0.4365    -2.1294 F       
   9 C9             0.8886     2.6520     1.4977 C.2     
  10 O10            2.0402     2.8233     1.1462 O.2     
  11 N11            0.3307     3.4784     2.4045 N.am    
  12 N12            1.3909     1.6506    -1.1168 N.pl3   
  13 C13            2.6176     0.9934    -1.2589 C.ar    
  14 C14            3.6255     1.5584    -2.0333 C.ar    
  15 C15            4.8366     0.9054    -2.1712 C.ar    
  16 C16            5.0450    -0.3079    -1.5402 C.ar    
  17 C17            4.0438    -0.8716    -0.7699 C.ar    
  18 C18            2.8339    -0.2216    -0.6225 C.ar    
  19 F19            3.4214     2.7429    -2.6501 F       
  20 I20            6.8811    -1.2943    -1.7522 I       
  21 C21            0.7902     4.5966     3.2420 C.3     
  22 C22           -0.6471     5.1347     3.2173 C.3     
  23 C23           -1.0069     3.6630     2.9871 C.3     
  24 C24           -1.1287     5.6994     4.5553 C.3     
  25 O25           -0.9355     5.9847     2.1055 O.3     
  26 H26           -1.1979     4.8935     5.2860 H       
  27 N27           -0.1759     6.7113     5.0311 N.3     
  28 C28           -0.3432     7.9757     4.3023 C.3     
  29 C29           -0.3064     6.9173     6.4797 C.3     
  30 H30           -2.4450    -0.5358     1.7261 H       
  31 H31           -1.1408     1.3147     2.6733 H       
  32 H32            1.2487     2.5098    -1.5440 H       
  33 H33            5.6201     1.3428    -2.7721 H       
  34 H34            4.2100    -1.8192    -0.2791 H       
  35 H35            2.0532    -0.6628    -0.0206 H       
  36 H36            1.1214     4.2886     4.2338 H       
  37 H37            1.5063     5.2482     2.7414 H       
  38 H38           -1.8174     3.5210     2.2722 H       
  39 H39           -1.1556     3.1030     3.9104 H       
  40 H40           -2.1094     6.1567     4.4248 H       
  41 H41           -1.8619     6.2562     2.0477 H       
  42 H42           -1.3555     8.3507     4.4529 H       
  43 H43            0.3743     8.7071     4.6742 H       
  44 H44           -0.1725     7.8075     3.2389 H       
  45 H45           -0.0269     6.0031     7.0033 H       
  46 H46            0.3498     7.7299     6.7917 H       
  47 H47           -1.3389     7.1719     6.7189 H       
@<TRIPOS>BOND
   1    1    2 ar
   2    1   12 1
   3    1    6 ar
   4    2    3 ar
   5    2    8 1
   6    3    4 ar
   7    3    7 1
   8    4    5 ar
   9    4   30 1
  10    5    6 ar
  11    5   31 1
  12    6    9 1
  13    9   10 2
  14    9   11 am
  15   11   21 1
  16   11   23 1
  17   12   13 1
  18   12   32 1
  19   13   14 ar
  20   13   18 ar
  21   14   15 ar
  22   14   19 1
  23   15   16 ar
  24   15   33 1
  25   16   17 ar
  26   16   20 1
  27   17   18 ar
  28   17   34 1
  29   18   35 1
  30   21   22 1
  31   21   36 1
  32   21   37 1
  33   22   23 1
  34   22   24 1
  35   22   25 1
  36   23   38 1
  37   23   39 1
  38   24   26 1
  39   24   27 1
  40   24   40 1
  41   25   41 1
  42   27   28 1
  43   27   29 1
  44   28   42 1
  45   28   43 1
  46   28   44 1
  47   29   45 1
  48   29   46 1
  49   29   47 1

#	End of record

