#	Name: ASD02508328
#	Creating user name:	WinNT
#	Creation time:	15. 06. 2019 20:24

#	Modifying user name:	WinNT
#	Modification time:	15. 06. 2019 20:24

#	Program:	/corina/corina34_cracker 3.40 0067  02.08.2006

@<TRIPOS>MOLECULE
ASD02508328
  54   56    0    0    0
SMALL
NO_CHARGES


@<TRIPOS>ATOM
   1 C1             0.6084     0.0918     1.3314 C.ar    
   2 C2            -0.0466    -0.0338     0.1128 C.ar    
   3 C3             0.4745     0.5805    -1.0189 C.ar    
   4 C4             1.6414     1.3136    -0.9292 C.ar    
   5 C5             2.2913     1.4362     0.2853 C.ar    
   6 C6             1.7750     0.8264     1.4139 C.ar    
   7 S7             3.7801     2.3721     0.3950 S.o2    
   8 O8             4.4785     1.8832     1.5319 O.2     
   9 O9             4.3390     2.3916    -0.9113 O.2     
  10 C10            3.3257     4.0334     0.7667 C.ar    
  11 C11            3.2147     4.4400     2.0837 C.ar    
  12 C12            2.8588     5.7415     2.3786 C.ar    
  13 C13            2.6122     6.6423     1.3504 C.ar    
  14 C14            2.7246     6.2305     0.0285 C.ar    
  15 C15            3.0865     4.9291    -0.2593 C.ar    
  16 N16           -1.2264    -0.7764     0.0257 N.am    
  17 C17           -1.2368    -2.0532    -0.6926 C.3     
  18 S18           -2.6133    -0.2136     0.7342 S.o2    
  19 C19           -3.4115     0.8310    -0.4390 C.ar    
  20 O20           -3.4604    -1.3409     0.9093 O.2     
  21 O21           -2.2045     0.6254     1.8057 O.2     
  22 C22           -4.2506     0.2851    -1.3923 C.ar    
  23 C23           -4.8767     1.1046    -2.3128 C.ar    
  24 C24           -4.6641     2.4701    -2.2796 C.ar    
  25 C25           -3.8257     3.0161    -1.3257 C.ar    
  26 C26           -3.2030     2.1971    -0.4026 C.ar    
  27 C27           -5.3460     3.3634    -3.2837 C.3     
  28 C28           -0.9327    -1.8087    -2.1720 C.3     
  29 N29            2.2515     7.9592     1.6450 N.pl3   
  30 C30           -0.1739    -2.9805    -0.0999 C.3     
  31 H31            0.2036    -0.3808     2.2140 H       
  32 H32           -0.0321     0.4845    -1.9678 H       
  33 H33            2.0472     1.7914    -1.8087 H       
  34 H34            2.2849     0.9241     2.3609 H       
  35 H35            3.4062     3.7390     2.8827 H       
  36 H36            2.7719     6.0583     3.4074 H       
  37 H37            2.5336     6.9284    -0.7733 H       
  38 H38            3.1744     4.6084    -1.2868 H       
  39 H39           -2.2185    -2.5168    -0.5953 H       
  40 H40           -4.4166    -0.7817    -1.4182 H       
  41 H41           -5.5317     0.6780    -3.0580 H       
  42 H42           -3.6594     4.0830    -1.3001 H       
  43 H43           -2.5480     2.6237     0.3426 H       
  44 H44           -6.3082     3.6875    -2.8872 H       
  45 H45           -4.7209     4.2350    -3.4780 H       
  46 H46           -5.5020     2.8139    -4.2120 H       
  47 H47            0.0791    -1.4165    -2.2749 H       
  48 H48           -1.0161    -2.7472    -2.7200 H       
  49 H49           -1.6444    -1.0881    -2.5750 H       
  50 H50            2.1730     8.2455     2.5684 H       
  51 H51            2.0796     8.5873     0.9261 H       
  52 H52           -0.4239    -3.2037     0.9373 H       
  53 H53           -0.1397    -3.9071    -0.6729 H       
  54 H54            0.7993    -2.4913    -0.1418 H       
@<TRIPOS>BOND
   1    1    2 ar
   2    1    6 ar
   3    1   31 1
   4    2    3 ar
   5    2   16 1
   6    3    4 ar
   7    3   32 1
   8    4    5 ar
   9    4   33 1
  10    5    6 ar
  11    5    7 1
  12    6   34 1
  13    7    8 2
  14    7    9 2
  15    7   10 1
  16   10   11 ar
  17   10   15 ar
  18   11   12 ar
  19   11   35 1
  20   12   13 ar
  21   12   36 1
  22   13   14 ar
  23   13   29 1
  24   14   15 ar
  25   14   37 1
  26   15   38 1
  27   16   17 1
  28   16   18 am
  29   17   28 1
  30   17   30 1
  31   17   39 1
  32   18   19 1
  33   18   20 2
  34   18   21 2
  35   19   22 ar
  36   19   26 ar
  37   22   23 ar
  38   22   40 1
  39   23   24 ar
  40   23   41 1
  41   24   25 ar
  42   24   27 1
  43   25   26 ar
  44   25   42 1
  45   26   43 1
  46   27   44 1
  47   27   45 1
  48   27   46 1
  49   28   47 1
  50   28   48 1
  51   28   49 1
  52   29   50 1
  53   29   51 1
  54   30   52 1
  55   30   53 1
  56   30   54 1

#	End of record

