#	Name: ASD02198760
#	Creating user name:	WinNT
#	Creation time:	15. 06. 2019 20:20

#	Modifying user name:	WinNT
#	Modification time:	15. 06. 2019 20:20

#	Program:	/corina/corina34_cracker 3.40 0067  02.08.2006

@<TRIPOS>MOLECULE
ASD02198760
  51   55    0    0    0
SMALL
NO_CHARGES


@<TRIPOS>ATOM
   1 C1             0.1418     1.5501     0.2455 C.2     
   2 C2             0.1509     0.2340     0.5754 C.2     
   3 N3             1.3028    -0.4736     0.5711 N.pl3   
   4 N4             2.4392     0.0334     0.2635 N.2     
   5 C5             2.5716     1.2981    -0.0759 C.2     
   6 C6             1.3744     2.1531    -0.1015 C.2     
   7 C7             1.2520    -1.8276     0.9206 C.ar    
   8 C8             2.0610    -2.3142     1.9468 C.ar    
   9 C9             2.0086    -3.6546     2.2903 C.ar    
  10 C10            1.1511    -4.5109     1.6124 C.ar    
  11 C11            0.3455    -4.0234     0.5896 C.ar    
  12 C12            0.3918    -2.6868     0.2493 C.ar    
  13 C13            3.8971     1.8489    -0.4239 C.2     
  14 N14            4.2310     2.4899    -1.5838 N.pl3   
  15 N15            5.5826     2.8468    -1.5002 N.2     
  16 C16            6.0536     2.4446    -0.3468 C.2     
  17 C17            5.0282     1.8186     0.3620 C.2     
  18 C18            3.3750     2.7438    -2.6630 C.ar    
  19 C19            3.4069     3.9766    -3.3014 C.ar    
  20 C20            2.5619     4.2236    -4.3656 C.ar    
  21 C21            1.6847     3.2449    -4.7955 C.ar    
  22 C22            1.6502     2.0163    -4.1616 C.ar    
  23 C23            2.4967     1.7611    -3.1006 C.ar    
  24 O24            1.4415     3.3338    -0.4098 O.2     
  25 N25            1.0981    -5.8632     1.9581 N.3     
  26 C26            0.8991    -6.7064     0.7646 C.3     
  27 C27            1.9226    -7.6865     1.3549 C.3     
  28 C28            2.4535    -6.4344     2.0668 C.3     
  29 F29            1.3705    -8.6431     2.2137 F       
  30 O30            2.8998    -1.4743     2.6085 O.3     
  31 C31            3.6989    -2.0420     3.6483 C.3     
  32 H32           -0.7768     2.1181     0.2434 H       
  33 H33           -0.7738    -0.2545     0.8452 H       
  34 H34            2.6345    -4.0338     3.0845 H       
  35 H35           -0.3208    -4.6909     0.0635 H       
  36 H36           -0.2352    -2.3103    -0.5454 H       
  37 H37            7.0675     2.5788     0.0002 H       
  38 H38            5.1083     1.3829     1.3470 H       
  39 H39            4.0914     4.7415    -2.9658 H       
  40 H40            2.5860     5.1824    -4.8622 H       
  41 H41            1.0250     3.4405    -5.6279 H       
  42 H42            0.9638     1.2541    -4.4995 H       
  43 H43            2.4695     0.8013    -2.6061 H       
  44 H44           -0.1060    -7.1214     0.6889 H       
  45 H45            1.2321    -6.2355    -0.1602 H       
  46 H46            2.6103    -8.1087     0.6221 H       
  47 H47            3.2013    -5.8909     1.4894 H       
  48 H48            2.7658    -6.6189     3.0947 H       
  49 H49            4.3212    -1.2655     4.0933 H       
  50 H50            3.0502    -2.4701     4.4125 H       
  51 H51            4.3350    -2.8233     3.2323 H       
@<TRIPOS>BOND
   1    1    2 2
   2    1    6 1
   3    1   32 1
   4    2    3 1
   5    2   33 1
   6    3    4 1
   7    3    7 1
   8    4    5 2
   9    5    6 1
  10    5   13 1
  11    6   24 2
  12    7    8 ar
  13    7   12 ar
  14    8    9 ar
  15    8   30 1
  16    9   10 ar
  17    9   34 1
  18   10   11 ar
  19   10   25 1
  20   11   12 ar
  21   11   35 1
  22   12   36 1
  23   13   14 1
  24   13   17 2
  25   14   15 1
  26   14   18 1
  27   15   16 2
  28   16   17 1
  29   16   37 1
  30   17   38 1
  31   18   19 ar
  32   18   23 ar
  33   19   20 ar
  34   19   39 1
  35   20   21 ar
  36   20   40 1
  37   21   22 ar
  38   21   41 1
  39   22   23 ar
  40   22   42 1
  41   23   43 1
  42   25   26 1
  43   25   28 1
  44   26   27 1
  45   26   44 1
  46   26   45 1
  47   27   28 1
  48   27   29 1
  49   27   46 1
  50   28   47 1
  51   28   48 1
  52   30   31 1
  53   31   49 1
  54   31   50 1
  55   31   51 1

#	End of record

