#	Name: ASD01913444
#	Creating user name:	WinNT
#	Creation time:	15. 06. 2019 20:01

#	Modifying user name:	WinNT
#	Modification time:	15. 06. 2019 20:01

#	Program:	/corina/corina34_cracker 3.40 0067  02.08.2006

@<TRIPOS>MOLECULE
ASD01913444
  33   35    0    0    0
SMALL
NO_CHARGES


@<TRIPOS>ATOM
   1 C1             0.8916     0.0819    -1.0232 C.ar    
   2 C2             0.0188    -0.0119     0.0560 C.ar    
   3 C3             0.3631     0.6319     1.2402 C.ar    
   4 N4             1.5001     1.3055     1.2975 N.ar    
   5 C5             2.3009     1.3710     0.2528 C.ar    
   6 N6             2.0099     0.7749    -0.8860 N.ar    
   7 C7            -1.0608    -2.0646    -0.1448 C.ar    
   8 C8            -2.2202    -2.8305    -0.1596 C.ar    
   9 N9            -2.1441    -4.1452    -0.2627 N.ar    
  10 C10           -0.9668    -4.7362    -0.3524 C.ar    
  11 C11            0.1977    -3.9750    -0.3381 C.ar    
  12 N12            0.1235    -2.6543    -0.2346 N.ar    
  13 N13            1.4398    -4.5986    -0.4318 N.am    
  14 C14            2.5612    -3.8566    -0.5230 C.2     
  15 O15           -1.1407    -0.7140    -0.0441 O.3     
  16 C16            3.8658    -4.5136    -0.7492 C.ar    
  17 C17            5.0290    -3.7480    -0.8441 C.ar    
  18 C18            6.2440    -4.3670    -1.0549 C.ar    
  19 C19            6.3115    -5.7435    -1.1726 C.ar    
  20 C20            5.1615    -6.5097    -1.0800 C.ar    
  21 C21            3.9405    -5.9030    -0.8631 C.ar    
  22 O22            2.4998    -2.6471    -0.4192 O.2     
  23 Cl23           5.2564    -8.2366    -1.2297 Cl      
  24 H24            0.6616    -0.4077    -1.9579 H       
  25 H25           -0.2885     0.5827     2.1000 H       
  26 H26            3.2220     1.9292     0.3323 H       
  27 H27           -3.1848    -2.3503    -0.0864 H       
  28 H28           -0.9077    -5.8113    -0.4365 H       
  29 H29            1.4976    -5.5669    -0.4314 H       
  30 H30            4.9780    -2.6731    -0.7531 H       
  31 H31            7.1444    -3.7753    -1.1284 H       
  32 H32            7.2651    -6.2229    -1.3379 H       
  33 H33            3.0441    -6.5010    -0.7909 H       
@<TRIPOS>BOND
   1    1    2 ar
   2    1    6 ar
   3    1   24 1
   4    2    3 ar
   5    2   15 1
   6    3    4 ar
   7    3   25 1
   8    4    5 ar
   9    5    6 ar
  10    5   26 1
  11    7    8 ar
  12    7   12 ar
  13    7   15 1
  14    8    9 ar
  15    8   27 1
  16    9   10 ar
  17   10   11 ar
  18   10   28 1
  19   11   12 ar
  20   11   13 1
  21   13   14 am
  22   13   29 1
  23   14   16 1
  24   14   22 2
  25   16   17 ar
  26   16   21 ar
  27   17   18 ar
  28   17   30 1
  29   18   19 ar
  30   18   31 1
  31   19   20 ar
  32   19   32 1
  33   20   21 ar
  34   20   23 1
  35   21   33 1

#	End of record

