#	Name: ASD01810073
#	Creating user name:	WinNT
#	Creation time:	15. 06. 2019 19:23

#	Modifying user name:	WinNT
#	Modification time:	15. 06. 2019 19:23

#	Program:	/corina/corina34_cracker 3.40 0067  02.08.2006

@<TRIPOS>MOLECULE
ASD01810073
  33   35    0    0    0
SMALL
NO_CHARGES


@<TRIPOS>ATOM
   1 C1            -0.0167     1.3804     0.0096 C.ar    
   2 C2             0.0021    -0.0041     0.0020 C.ar    
   3 C3             1.2005    -0.6935    -0.0132 C.ar    
   4 C4             2.4043    -0.0017    -0.0205 C.ar    
   5 C5             2.3825     1.4028    -0.0128 C.ar    
   6 C6             1.1684     2.0883     0.0021 C.ar    
   7 N7             3.7234    -0.4489    -0.0358 N.am    
   8 C8             4.5905     0.5782    -0.0388 C.2     
   9 C9             3.7890     1.8460    -0.0242 C.2     
  10 O10            4.2062     2.9855    -0.0225 O.2     
  11 O11            5.8007     0.4950    -0.0505 O.2     
  12 C12            4.1161    -1.8603    -0.0472 C.3     
  13 C13            4.2368    -2.3366    -1.4719 C.ar    
  14 C14            5.4463    -2.2335    -2.1339 C.ar    
  15 C15            5.5596    -2.6694    -3.4399 C.ar    
  16 C16            4.4585    -3.2110    -4.0871 C.ar    
  17 C17            3.2460    -3.3133    -3.4207 C.ar    
  18 C18            3.1394    -2.8811    -2.1129 C.ar    
  19 O19            4.5673    -3.6401    -5.3720 O.3     
  20 C20            3.3927    -4.1866    -5.9751 C.3     
  21 H21           -0.9596     1.9070     0.0170 H       
  22 H22           -0.9291    -0.5511     0.0084 H       
  23 H23            1.2002    -1.7735    -0.0190 H       
  24 H24            1.1552     3.1682     0.0077 H       
  25 H25            5.0759    -1.9745     0.4566 H       
  26 H26            3.3611    -2.4517     0.4708 H       
  27 H27            6.3031    -1.8116    -1.6297 H       
  28 H28            6.5045    -2.5884    -3.9566 H       
  29 H29            2.3874    -3.7345    -3.9224 H       
  30 H30            2.1958    -2.9606    -1.5936 H       
  31 H31            3.6167    -4.4895    -6.9979 H       
  32 H32            3.0606    -5.0535    -5.4039 H       
  33 H33            2.6047    -3.4335    -5.9835 H       
@<TRIPOS>BOND
   1    1    2 ar
   2    1    6 ar
   3    1   21 1
   4    2    3 ar
   5    2   22 1
   6    3    4 ar
   7    3   23 1
   8    4    5 ar
   9    4    7 1
  10    5    6 ar
  11    5    9 1
  12    6   24 1
  13    7    8 am
  14    7   12 1
  15    8    9 1
  16    8   11 2
  17    9   10 2
  18   12   13 1
  19   12   25 1
  20   12   26 1
  21   13   14 ar
  22   13   18 ar
  23   14   15 ar
  24   14   27 1
  25   15   16 ar
  26   15   28 1
  27   16   17 ar
  28   16   19 1
  29   17   18 ar
  30   17   29 1
  31   18   30 1
  32   19   20 1
  33   20   31 1
  34   20   32 1
  35   20   33 1

#	End of record

