#	Name: ASD01208443
#	Creating user name:	WinNT
#	Creation time:	15. 06. 2019 19:09

#	Modifying user name:	WinNT
#	Modification time:	15. 06. 2019 19:09

#	Program:	/corina/corina34_cracker 3.40 0067  02.08.2006

@<TRIPOS>MOLECULE
ASD01208443
  40   41    0    0    0
SMALL
NO_CHARGES


@<TRIPOS>ATOM
   1 C1             0.1669     1.4585     0.2862 C.2     
   2 C2             0.0734    -0.0106     0.2064 C.ar    
   3 C3            -1.1005    -0.6243    -0.2589 C.ar    
   4 C4            -1.1445    -1.9907    -0.3174 C.ar    
   5 C5            -0.0274    -2.7302     0.0851 C.ar    
   6 N6             1.0721    -2.1212     0.5225 N.ar    
   7 C7             1.1543    -0.8105     0.5875 C.ar    
   8 O8            -0.7758     2.1465    -0.0519 O.2     
   9 O9             1.2959     2.0382     0.7395 O.3     
  10 N10            1.0158    -5.0405    -0.1303 N.am    
  11 C11           -0.0687    -4.2022     0.0245 C.2     
  12 C12           -1.1856    -4.9791     0.1118 C.2     
  13 C13           -0.7762    -6.3184     0.0084 C.2     
  14 C14            0.5659    -6.3316    -0.1381 C.2     
  15 C15            2.3002    -4.6525    -0.2579 C.2     
  16 O16            2.5698    -3.4742    -0.3733 O.2     
  17 O17            3.2837    -5.5708    -0.2574 O.3     
  18 C18            4.6431    -5.0808    -0.3989 C.3     
  19 C19            4.9662    -4.1320     0.7570 C.3     
  20 C20            5.6158    -6.2617    -0.3765 C.3     
  21 C21            4.7800    -4.3326    -1.7264 C.3     
  22 C22            1.3171     3.4891     0.7908 C.3     
  23 H23           -1.9500    -0.0311    -0.5637 H       
  24 H24           -2.0329    -2.4932    -0.6703 H       
  25 H25            2.0634    -0.3481     0.9426 H       
  26 H26           -2.1994    -4.6287     0.2377 H       
  27 H27           -1.4206    -7.1844     0.0409 H       
  28 H28            1.1804    -7.2134    -0.2440 H       
  29 H29            4.8687    -4.6650     1.7027 H       
  30 H30            5.9867    -3.7641     0.6508 H       
  31 H31            4.2733    -3.2907     0.7410 H       
  32 H32            5.3856    -6.9377    -1.2000 H       
  33 H33            6.6363    -5.8939    -0.4827 H       
  34 H34            5.5183    -6.7947     0.5693 H       
  35 H35            4.0871    -3.4913    -1.7425 H       
  36 H36            5.8006    -3.9648    -1.8327 H       
  37 H37            4.5499    -5.0086    -2.5500 H       
  38 H38            1.1636     3.8905    -0.2109 H       
  39 H39            0.5227     3.8410     1.4489 H       
  40 H40            2.2810     3.8251     1.1730 H       
@<TRIPOS>BOND
   1    1    2 1
   2    1    8 2
   3    1    9 1
   4    2    3 ar
   5    2    7 ar
   6    3    4 ar
   7    3   23 1
   8    4    5 ar
   9    4   24 1
  10    5    6 ar
  11    5   11 1
  12    6    7 ar
  13    7   25 1
  14    9   22 1
  15   10   11 1
  16   10   14 1
  17   10   15 am
  18   11   12 2
  19   12   13 1
  20   12   26 1
  21   13   14 2
  22   13   27 1
  23   14   28 1
  24   15   16 2
  25   15   17 1
  26   17   18 1
  27   18   19 1
  28   18   21 1
  29   18   20 1
  30   19   29 1
  31   19   30 1
  32   19   31 1
  33   20   32 1
  34   20   33 1
  35   20   34 1
  36   21   35 1
  37   21   36 1
  38   21   37 1
  39   22   38 1
  40   22   39 1
  41   22   40 1

#	End of record

