#	Name: ASD08170316
#	Creating user name:	WinNT
#	Creation time:	15. 06. 2019 21:17

#	Modifying user name:	WinNT
#	Modification time:	15. 06. 2019 21:17

#	Program:	/corina/corina34_cracker 3.40 0067  02.08.2006

@<TRIPOS>MOLECULE
ASD08170316
  69   70    0    0    0
SMALL
NO_CHARGES


@<TRIPOS>ATOM
   1 N1            -0.0155     1.2947     0.0092 N.2     
   2 C2             0.0021    -0.0041     0.0020 C.2     
   3 S3             1.6320    -0.5310    -0.0164 S.3     
   4 C4             2.1557     1.1534    -0.0123 C.2     
   5 N5             1.0945     1.8960     0.0018 N.2     
   6 C6             7.9705     3.1008     4.7955 C.2     
   7 S7             7.7406     4.5190     5.8189 S.3     
   8 C8             8.3761     3.6409     7.1454 C.2     
   9 N9             8.6858     2.4453     6.7432 N.2     
  10 N10            8.4731     2.1610     5.5316 N.2     
  11 N11           -1.1168    -0.8300     0.0087 N.am    
  12 C12           -2.3521    -0.2911     0.0233 C.2     
  13 O13           -2.4879     0.9140     0.0307 O.2     
  14 N14            8.5346     4.1275     8.4385 N.am    
  15 C15            9.0489     3.3340     9.3989 C.2     
  16 O16            9.3735     2.1955     9.1354 O.2     
  17 C17            3.5816     1.6410    -0.0229 C.3     
  18 C18            4.0775     1.7984     1.4160 C.3     
  19 S19            5.7939     2.3852     1.4033 S.3     
  20 C20            6.1962     2.5079     3.1678 C.3     
  21 C21            7.6363     2.9989     3.3296 C.3     
  22 C22            9.2207     3.8614    10.8001 C.3     
  23 C23            9.8195     2.7678    11.6868 C.3     
  24 C24            9.9938     3.3032    13.1095 C.3     
  25 C25           10.5926     2.2095    13.9962 C.3     
  26 C26           10.7670     2.7449    15.4188 C.3     
  27 C27           11.3658     1.6513    16.3055 C.3     
  28 C28           -3.5646    -1.1861     0.0305 C.3     
  29 C29           -4.8314    -0.3284     0.0471 C.3     
  30 C30           -6.0624    -1.2371     0.0544 C.3     
  31 C31           -7.3293    -0.3794     0.0709 C.3     
  32 C32           -8.5602    -1.2880     0.0783 C.3     
  33 C33           -9.8271    -0.4303     0.0948 C.3     
  34 H34           -1.0082    -1.7939     0.0028 H       
  35 H35            8.2750     5.0381     8.6493 H       
  36 H36            4.2086     0.9191    -0.5463 H       
  37 H37            3.6328     2.6033    -0.5321 H       
  38 H38            3.4505     2.5202     1.9394 H       
  39 H39            4.0263     0.8360     1.9252 H       
  40 H40            5.5163     3.2120     3.6474 H       
  41 H41            6.0920     1.5278     3.6332 H       
  42 H42            7.7405     3.9790     2.8642 H       
  43 H43            8.3162     2.2947     2.8500 H       
  44 H44            9.8883     4.7229    10.7848 H       
  45 H45            8.2506     4.1605    11.1972 H       
  46 H46            9.1518     1.9063    11.7021 H       
  47 H47           10.7895     2.4686    11.2898 H       
  48 H48           10.6615     4.1646    13.0942 H       
  49 H49            9.0238     3.6023    13.5065 H       
  50 H50            9.9250     1.3481    14.0115 H       
  51 H51           11.5627     1.9104    13.5991 H       
  52 H52           11.4347     3.6064    15.4035 H       
  53 H53            9.7970     3.0441    15.8159 H       
  54 H54           10.6982     0.7898    16.3208 H       
  55 H55           12.3359     1.3522    15.9084 H       
  56 H56           11.4901     2.0327    17.3190 H       
  57 H57           -3.5603    -1.8108    -0.8627 H       
  58 H58           -3.5432    -1.8197     0.9172 H       
  59 H59           -4.8357     0.2963     0.9403 H       
  60 H60           -4.8528     0.3052    -0.8396 H       
  61 H61           -6.0582    -1.8618    -0.8388 H       
  62 H62           -6.0410    -1.8707     0.9411 H       
  63 H63           -7.3335     0.2453     0.9642 H       
  64 H64           -7.3507     0.2542    -0.8157 H       
  65 H65           -8.5560    -1.9127    -0.8149 H       
  66 H66           -8.5388    -1.9217     0.9649 H       
  67 H67           -9.8313     0.1944     0.9880 H       
  68 H68           -9.8485     0.2033    -0.7918 H       
  69 H69          -10.7041    -1.0777     0.1000 H       
@<TRIPOS>BOND
   1    1    2 2
   2    1    5 1
   3    2    3 1
   4    2   11 1
   5    3    4 1
   6    4    5 2
   7    4   17 1
   8    6    7 1
   9    6   21 1
  10    6   10 2
  11    7    8 1
  12    8    9 2
  13    8   14 1
  14    9   10 1
  15   11   12 am
  16   11   34 1
  17   12   28 1
  18   12   13 2
  19   14   15 am
  20   14   35 1
  21   15   22 1
  22   15   16 2
  23   17   18 1
  24   17   36 1
  25   17   37 1
  26   18   19 1
  27   18   38 1
  28   18   39 1
  29   19   20 1
  30   20   21 1
  31   20   40 1
  32   20   41 1
  33   21   42 1
  34   21   43 1
  35   22   23 1
  36   22   44 1
  37   22   45 1
  38   23   24 1
  39   23   46 1
  40   23   47 1
  41   24   25 1
  42   24   48 1
  43   24   49 1
  44   25   26 1
  45   25   50 1
  46   25   51 1
  47   26   27 1
  48   26   52 1
  49   26   53 1
  50   27   54 1
  51   27   55 1
  52   27   56 1
  53   28   29 1
  54   28   57 1
  55   28   58 1
  56   29   30 1
  57   29   59 1
  58   29   60 1
  59   30   31 1
  60   30   61 1
  61   30   62 1
  62   31   32 1
  63   31   63 1
  64   31   64 1
  65   32   33 1
  66   32   65 1
  67   32   66 1
  68   33   67 1
  69   33   68 1
  70   33   69 1

#	End of record

