#	Name: ASD04882493
#	Creating user name:	WinNT
#	Creation time:	15. 06. 2019 20:54

#	Modifying user name:	WinNT
#	Modification time:	15. 06. 2019 20:54

#	Program:	/corina/corina34_cracker 3.40 0067  02.08.2006

@<TRIPOS>MOLECULE
ASD04882493
  90   94    0    0    0
SMALL
NO_CHARGES


@<TRIPOS>ATOM
   1 C1            -0.0215     1.4013    -0.0094 C.ar    
   2 C2            -0.0117     0.0037    -0.0051 C.ar    
   3 C3            -1.2095    -0.7018    -0.0165 C.ar    
   4 C4            -2.4098    -0.0266    -0.0315 C.ar    
   5 C5            -2.4268     1.3710    -0.0354 C.ar    
   6 C6            -1.2240     2.0827    -0.0192 C.ar    
   7 N7             1.1996    -0.6831     0.0100 N.3     
   8 C8             1.3065    -1.5360     1.2020 C.3     
   9 C9             1.3723    -1.4734    -1.2168 C.3     
  10 C10            2.7461    -2.1477    -1.1969 C.3     
  11 N11            2.8530    -3.0007    -0.0050 N.3     
  12 C12            2.6803    -2.2103     1.2219 C.3     
  13 C13           -3.7127     2.0940    -0.0514 C.2     
  14 O14           -3.7266     3.3099    -0.0548 O.2     
  15 N15           -4.8721     1.4068    -0.0624 N.am    
  16 N16            1.1863     2.1109     0.0021 N.am    
  17 C17            4.0680    -3.6895     0.0103 C.ar    
  18 C18            1.2294     3.3599     0.5068 C.2     
  19 C19            2.5092     4.0695     0.5995 C.2     
  20 O20            0.2059     3.8988     0.8856 O.2     
  21 C21            2.6935     5.3314     1.0877 C.2     
  22 C22            4.0665     5.6058     0.9887 C.2     
  23 C23            4.6527     4.5133     0.4513 C.2     
  24 O24            3.7118     3.5878     0.2228 O.3     
  25 C25            5.2665    -2.9870     0.0269 C.ar    
  26 C26            4.0807    -5.0784     0.0145 C.ar    
  27 C27            5.2839    -5.7564     0.0295 C.ar    
  28 C28            6.4749    -5.0542     0.0408 C.ar    
  29 C29            6.4658    -3.6711     0.0419 C.ar    
  30 C30            2.7831    -5.8446     0.0033 C.3     
  31 C31           -6.1490     2.1247    -0.0783 C.3     
  32 C32           -7.3004     1.1173    -0.0883 C.3     
  33 C33           -8.6140     1.8558    -0.1047 C.ar    
  34 C34           -9.2032     2.1914    -1.3093 C.ar    
  35 C35           -9.2324     2.1927     1.0848 C.ar    
  36 C36          -10.4372     2.8701     1.0698 C.ar    
  37 C37          -11.0235     3.2111    -0.1347 C.ar    
  38 C38          -10.4081     2.8688    -1.3243 C.ar    
  39 C39          -12.3373     3.9491    -0.1511 C.3     
  40 N40          -12.0866     5.3925    -0.1448 N.am    
  41 C41          -13.1212     6.2562    -0.1571 C.2     
  42 O42          -12.8909     7.5827    -0.1513 O.3     
  43 O43          -14.2619     5.8377    -0.1735 O.2     
  44 C44          -14.0526     8.4536    -0.1654 C.3     
  45 C45          -14.9102     8.1798     1.0718 C.3     
  46 C46          -13.5956     9.9137    -0.1562 C.3     
  47 C47          -14.8762     8.1849    -1.4265 C.3     
  48 H48           -1.1988    -1.7817    -0.0139 H       
  49 H49           -3.3386    -0.5775    -0.0406 H       
  50 H50           -1.2341     3.1627    -0.0218 H       
  51 H51            1.1878    -0.9260     2.0975 H       
  52 H52            0.5277    -2.2981     1.1748 H       
  53 H53            0.5943    -2.2348    -1.2714 H       
  54 H54            1.3016    -0.8178    -2.0847 H       
  55 H55            2.8648    -2.7577    -2.0924 H       
  56 H56            3.5249    -1.3856    -1.1697 H       
  57 H57            3.4584    -1.4489     1.2765 H       
  58 H58            2.7511    -2.8659     2.0898 H       
  59 H59           -4.8610     0.4369    -0.0597 H       
  60 H60            1.9917     1.7034    -0.3532 H       
  61 H61            1.9306     5.9908     1.4744 H       
  62 H62            4.5614     6.5185     1.2862 H       
  63 H63            5.7068     4.4031     0.2437 H       
  64 H64            5.2601    -1.9070     0.0278 H       
  65 H65            5.2945    -6.8364     0.0329 H       
  66 H66            7.4143    -5.5868     0.0532 H       
  67 H67            7.3979    -3.1256     0.0507 H       
  68 H68            2.4809    -6.0324    -1.0270 H       
  69 H69            2.9174    -6.7942     0.5214 H       
  70 H70            2.0124    -5.2615     0.5074 H       
  71 H71           -6.2237     2.7531     0.8093 H       
  72 H72           -6.2041     2.7483    -0.9706 H       
  73 H73           -7.2258     0.4890    -0.9758 H       
  74 H74           -7.2453     0.4937     0.8040 H       
  75 H75           -8.7221     1.9245    -2.2386 H       
  76 H76           -8.7743     1.9263     2.0259 H       
  77 H77          -10.9207     3.1327     1.9992 H       
  78 H78          -10.8661     3.1352    -2.2654 H       
  79 H79          -12.8935     3.6809    -1.0493 H       
  80 H80          -12.9178     3.6773     0.7305 H       
  81 H81          -11.1761     5.7266    -0.1317 H       
  82 H82          -14.3235     8.3713     1.9702 H       
  83 H83          -15.7824     8.8336     1.0612 H       
  84 H84          -15.2358     7.1396     1.0652 H       
  85 H85          -12.9847    10.1087    -1.0376 H       
  86 H86          -14.4678    10.5675    -0.1668 H       
  87 H87          -13.0089    10.1051     0.7422 H       
  88 H88          -15.2018     7.1446    -1.4330 H       
  89 H89          -15.7484     8.8386    -1.4370 H       
  90 H90          -14.2653     8.3799    -2.3078 H       
@<TRIPOS>BOND
   1    1    2 ar
   2    1   16 1
   3    1    6 ar
   4    2    3 ar
   5    2    7 1
   6    3    4 ar
   7    3   48 1
   8    4    5 ar
   9    4   49 1
  10    5    6 ar
  11    5   13 1
  12    6   50 1
  13    7    8 1
  14    7    9 1
  15    8   12 1
  16    8   51 1
  17    8   52 1
  18    9   10 1
  19    9   53 1
  20    9   54 1
  21   10   11 1
  22   10   55 1
  23   10   56 1
  24   11   12 1
  25   11   17 1
  26   12   57 1
  27   12   58 1
  28   13   14 2
  29   13   15 am
  30   15   31 1
  31   15   59 1
  32   16   18 am
  33   16   60 1
  34   17   26 ar
  35   17   25 ar
  36   18   19 1
  37   18   20 2
  38   19   21 2
  39   19   24 1
  40   21   22 1
  41   21   61 1
  42   22   23 2
  43   22   62 1
  44   23   24 1
  45   23   63 1
  46   25   29 ar
  47   25   64 1
  48   26   27 ar
  49   26   30 1
  50   27   28 ar
  51   27   65 1
  52   28   29 ar
  53   28   66 1
  54   29   67 1
  55   30   68 1
  56   30   69 1
  57   30   70 1
  58   31   32 1
  59   31   71 1
  60   31   72 1
  61   32   33 1
  62   32   73 1
  63   32   74 1
  64   33   34 ar
  65   33   35 ar
  66   34   38 ar
  67   34   75 1
  68   35   36 ar
  69   35   76 1
  70   36   37 ar
  71   36   77 1
  72   37   38 ar
  73   37   39 1
  74   38   78 1
  75   39   40 1
  76   39   79 1
  77   39   80 1
  78   40   41 am
  79   40   81 1
  80   41   42 1
  81   41   43 2
  82   42   44 1
  83   44   45 1
  84   44   46 1
  85   44   47 1
  86   45   82 1
  87   45   83 1
  88   45   84 1
  89   46   85 1
  90   46   86 1
  91   46   87 1
  92   47   88 1
  93   47   89 1
  94   47   90 1

#	End of record

