#	Name: ASD01916827
#	Creating user name:	WinNT
#	Creation time:	15. 06. 2019 20:08

#	Modifying user name:	WinNT
#	Modification time:	15. 06. 2019 20:08

#	Program:	/corina/corina34_cracker 3.40 0067  02.08.2006

@<TRIPOS>MOLECULE
ASD01916827
  64   67    0    0    0
SMALL
NO_CHARGES


@<TRIPOS>ATOM
   1 C1            -0.2978     1.9687    -0.4267 C.ar    
   2 C2            -0.4072     0.5881    -0.4565 C.ar    
   3 C3             0.7293    -0.2025    -0.3968 C.ar    
   4 C4             1.9753     0.3829    -0.3073 C.ar    
   5 C5             2.0900     1.7715    -0.2775 C.ar    
   6 C6             0.9447     2.5626    -0.3377 C.ar    
   7 C7             3.4281     2.4057    -0.1808 C.2     
   8 N8             3.6669     3.7235    -0.1440 N.2     
   9 N9             4.5756     1.7673    -0.1112 N.2     
  10 N10            5.5788     2.7470    -0.0331 N.pl3   
  11 C11            4.9532     3.9376    -0.0575 C.2     
  12 C12            5.6213     5.2870     0.0033 C.3     
  13 C13            7.0226     2.5174     0.0609 C.3     
  14 C14            7.5910     2.3211    -1.3209 C.2     
  15 O15            6.8794     2.4542    -2.2939 O.2     
  16 N16            8.8902     1.9975    -1.4754 N.am    
  17 C17            9.4652     1.8014    -2.8149 C.3     
  18 C18           10.7338     2.6533    -2.9296 C.3     
  19 N19           11.6354     2.3360    -1.8141 N.3     
  20 C20           11.0272     2.6819    -0.5224 C.3     
  21 C21            9.7721     1.8372    -0.3093 C.3     
  22 C22           12.8638     2.9673    -1.9713 C.ar    
  23 C23           13.8573     2.7902    -1.0141 C.ar    
  24 N24           13.0795     3.7277    -3.0338 N.ar    
  25 C25           15.0751     3.4244    -1.1832 C.ar    
  26 C26           15.2588     4.2173    -2.3080 C.ar    
  27 C27           14.2309     4.3444    -3.2210 C.ar    
  28 C28            5.6999     5.7520     1.4588 C.3     
  29 F29           -1.6255     0.0107    -0.5436 F       
  30 C30            6.5022     7.0525     1.5361 C.3     
  31 C31            4.2870     5.9917     1.9947 C.3     
  32 C32            0.6040    -1.7039    -0.4292 C.3     
  33 C33           16.1774     3.2588    -0.1689 C.3     
  34 H34           -1.1858     2.5813    -0.4776 H       
  35 H35            2.8605    -0.2340    -0.2601 H       
  36 H36            1.0292     3.6390    -0.3152 H       
  37 H37            6.6275     5.2132    -0.4094 H       
  38 H38            5.0424     6.0056    -0.5769 H       
  39 H39            7.4977     3.3788     0.5302 H       
  40 H40            7.2106     1.6270     0.6610 H       
  41 H41            9.7162     0.7500    -2.9553 H       
  42 H42            8.7452     2.1130    -3.5716 H       
  43 H43           11.2332     2.4367    -3.8739 H       
  44 H44           10.4672     3.7096    -2.8926 H       
  45 H45           11.7395     2.4860     0.2791 H       
  46 H46           10.7565     3.7378    -0.5190 H       
  47 H47            9.2554     2.1698     0.5910 H       
  48 H48           10.0496     0.7879    -0.2091 H       
  49 H49           13.6803     2.1663    -0.1505 H       
  50 H50           16.1976     4.7263    -2.4692 H       
  51 H51           14.3694     4.9602    -4.0973 H       
  52 H52            6.1910     4.9860     2.0590 H       
  53 H53            6.0111     7.8186     0.9360 H       
  54 H54            6.5582     7.3838     2.5731 H       
  55 H55            7.5088     6.8818     1.1544 H       
  56 H56            4.3458     6.4286     2.9915 H       
  57 H57            3.7571     6.6738     1.3297 H       
  58 H58            3.7516     5.0436     2.0444 H       
  59 H59            0.6392    -2.0492    -1.4624 H       
  60 H60            1.4261    -2.1493     0.1310 H       
  61 H61           -0.3440    -1.9991     0.0205 H       
  62 H62           16.7960     2.4036    -0.4411 H       
  63 H63           16.7910     4.1595    -0.1489 H       
  64 H64           15.7423     3.0936     0.8167 H       
@<TRIPOS>BOND
   1    1    2 ar
   2    1    6 ar
   3    1   34 1
   4    2    3 ar
   5    2   29 1
   6    3    4 ar
   7    3   32 1
   8    4    5 ar
   9    4   35 1
  10    5    6 ar
  11    5    7 1
  12    6   36 1
  13    7    8 1
  14    7    9 2
  15    8   11 2
  16    9   10 1
  17   10   11 1
  18   10   13 1
  19   11   12 1
  20   12   28 1
  21   12   37 1
  22   12   38 1
  23   13   14 1
  24   13   39 1
  25   13   40 1
  26   14   15 2
  27   14   16 am
  28   16   17 1
  29   16   21 1
  30   17   18 1
  31   17   41 1
  32   17   42 1
  33   18   19 1
  34   18   43 1
  35   18   44 1
  36   19   20 1
  37   19   22 1
  38   20   21 1
  39   20   45 1
  40   20   46 1
  41   21   47 1
  42   21   48 1
  43   22   23 ar
  44   22   24 ar
  45   23   25 ar
  46   23   49 1
  47   24   27 ar
  48   25   26 ar
  49   25   33 1
  50   26   27 ar
  51   26   50 1
  52   27   51 1
  53   28   30 1
  54   28   31 1
  55   28   52 1
  56   30   53 1
  57   30   54 1
  58   30   55 1
  59   31   56 1
  60   31   57 1
  61   31   58 1
  62   32   59 1
  63   32   60 1
  64   32   61 1
  65   33   62 1
  66   33   63 1
  67   33   64 1

#	End of record

