#	Name: ASD01180175
#	Creating user name:	WinNT
#	Creation time:	15. 06. 2019 19:06

#	Modifying user name:	WinNT
#	Modification time:	15. 06. 2019 19:06

#	Program:	/corina/corina34_cracker 3.40 0067  02.08.2006

@<TRIPOS>MOLECULE
ASD01180175
  63   65    0    0    0
SMALL
NO_CHARGES


@<TRIPOS>ATOM
   1 C1             0.6067     1.2547    -0.5339 C.ar    
   2 C2             0.5435    -0.1216    -0.4531 C.ar    
   3 C3             1.7163    -0.8735    -0.4863 C.ar    
   4 C4             2.9473    -0.2303    -0.6010 C.ar    
   5 C5             2.9986     1.1465    -0.6811 C.ar    
   6 C6             1.8313     1.8879    -0.6477 C.ar    
   7 C7             1.8939     3.3911    -0.7350 C.3     
   8 F8             1.8294     3.7834    -2.0763 F       
   9 F9             0.8162     3.9441    -0.0350 F       
  10 F10            3.0942     3.8411    -0.1747 F       
  11 C11            1.6548    -2.3532    -0.3994 C.ar    
  12 C12            2.8322    -3.0967    -0.4334 C.ar    
  13 C13            2.7589    -4.4767    -0.3508 C.ar    
  14 C14            1.5090    -5.0679    -0.2369 C.ar    
  15 C15            0.3807    -4.2686    -0.2093 C.ar    
  16 N16            0.4790    -2.9571    -0.2845 N.ar    
  17 C17            1.3819    -6.5667    -0.1447 C.3     
  18 C18            1.1813    -6.9725     1.3168 C.3     
  19 N19            0.2314    -7.0089    -0.9366 N.pl3   
  20 C20            2.4441    -6.6434     2.1154 C.3     
  21 C21            2.1970    -6.9244     3.5990 C.3     
  22 C22            3.6025    -7.5106     1.6182 C.3     
  23 C23            0.2164    -8.2798    -1.4858 C.ar    
  24 N24           -0.7693    -8.6279    -2.3016 N.ar    
  25 C25           -0.8245    -9.8252    -2.8468 C.ar    
  26 C26            0.1643   -10.7726    -2.5779 C.ar    
  27 C27            1.2195   -10.4311    -1.7178 C.ar    
  28 C28            1.2408    -9.1737    -1.1780 C.ar    
  29 C29            0.1010   -12.1142    -3.1886 C.2     
  30 N30           -0.9169   -12.4322    -4.0127 N.am    
  31 O31            0.9672   -12.9331    -2.9483 O.2     
  32 C32           -0.9797   -13.7643    -4.6191 C.3     
  33 C33           -2.2239   -13.8637    -5.5041 C.3     
  34 C34           -2.2885   -15.2340    -6.1278 C.2     
  35 O35           -3.3023   -15.5506    -6.9486 O.3     
  36 O36           -1.4278   -16.0477    -5.8890 O.2     
  37 H37           -0.3018     1.8382    -0.5128 H       
  38 H38           -0.4131    -0.6149    -0.3640 H       
  39 H39            3.8593    -0.8081    -0.6269 H       
  40 H40            3.9520     1.6461    -0.7700 H       
  41 H41            3.7888    -2.6035    -0.5232 H       
  42 H42            3.6547    -5.0795    -0.3749 H       
  43 H43           -0.5938    -4.7256    -0.1207 H       
  44 H44            2.2889    -7.0326    -0.5299 H       
  45 H45            0.3353    -6.4255     1.7330 H       
  46 H46            0.9847    -8.0432     1.3729 H       
  47 H47           -0.5198    -6.4113    -1.0762 H       
  48 H48            2.6946    -5.5911     1.9817 H       
  49 H49            1.9465    -7.9767     3.7327 H       
  50 H50            3.0967    -6.6899     4.1679 H       
  51 H51            1.3718    -6.3066     3.9532 H       
  52 H52            4.4762    -7.3462     2.2489 H       
  53 H53            3.3149    -8.5610     1.6623 H       
  54 H54            3.8415    -7.2422     0.5891 H       
  55 H55           -1.6415   -10.0761    -3.5070 H       
  56 H56            1.9993   -11.1429    -1.4907 H       
  57 H57            2.0390    -8.8797    -0.5125 H       
  58 H58           -1.6079   -11.7790    -4.2044 H       
  59 H59           -0.0888   -13.9302    -5.2248 H       
  60 H60           -1.0310   -14.5188    -3.8341 H       
  61 H61           -3.1148   -13.6978    -4.8984 H       
  62 H62           -2.1726   -13.1092    -6.2891 H       
  63 H63           -3.3008   -16.4415    -7.3247 H       
@<TRIPOS>BOND
   1    1    2 ar
   2    1    6 ar
   3    1   37 1
   4    2    3 ar
   5    2   38 1
   6    3    4 ar
   7    3   11 1
   8    4    5 ar
   9    4   39 1
  10    5    6 ar
  11    5   40 1
  12    6    7 1
  13    7    8 1
  14    7    9 1
  15    7   10 1
  16   11   12 ar
  17   11   16 ar
  18   12   13 ar
  19   12   41 1
  20   13   14 ar
  21   13   42 1
  22   14   15 ar
  23   14   17 1
  24   15   16 ar
  25   15   43 1
  26   17   18 1
  27   17   19 1
  28   17   44 1
  29   18   20 1
  30   18   45 1
  31   18   46 1
  32   19   23 1
  33   19   47 1
  34   20   21 1
  35   20   22 1
  36   20   48 1
  37   21   49 1
  38   21   50 1
  39   21   51 1
  40   22   52 1
  41   22   53 1
  42   22   54 1
  43   23   24 ar
  44   23   28 ar
  45   24   25 ar
  46   25   26 ar
  47   25   55 1
  48   26   27 ar
  49   26   29 1
  50   27   28 ar
  51   27   56 1
  52   28   57 1
  53   29   30 am
  54   29   31 2
  55   30   32 1
  56   30   58 1
  57   32   33 1
  58   32   59 1
  59   32   60 1
  60   33   34 1
  61   33   61 1
  62   33   62 1
  63   34   35 1
  64   34   36 2
  65   35   63 1

#	End of record

