#	Name: ASD01940389
#	Creating user name:	WinNT
#	Creation time:	15. 06. 2019 20:12

#	Modifying user name:	WinNT
#	Modification time:	15. 06. 2019 20:12

#	Program:	/corina/corina34_cracker 3.40 0067  02.08.2006

@<TRIPOS>MOLECULE
ASD01940389
  38   37    0    0    0
SMALL
NO_CHARGES


@<TRIPOS>ATOM
   1 C1            -0.0184     1.5028     0.0103 C.2     
   2 C2             0.0021    -0.0041     0.0020 C.3     
   3 C3            -0.7002    -0.5305     1.2552 C.3     
   4 C4            -0.7241    -0.5171    -1.2431 C.3     
   5 O5             1.0197     2.1211     0.0037 O.2     
   6 O6            -1.1898     2.1580     0.0194 O.3     
   7 O7             1.3556    -0.4620    -0.0134 O.3     
   8 N8             1.4866    -1.8719    -0.0222 N.am    
   9 C9             2.7110    -2.4349    -0.0369 C.2     
  10 O10            3.7026    -1.7326    -0.0426 O.2     
  11 O11            2.8355    -3.7755    -0.0453 O.3     
  12 C12            4.1846    -4.3121    -0.0611 C.3     
  13 C13            4.9370    -3.8372     1.1836 C.3     
  14 C14            4.1253    -5.8410    -0.0687 C.3     
  15 C15            4.9131    -3.8238    -1.3147 C.3     
  16 C16           -1.1335     3.6089     0.0270 C.3     
  17 C17           -2.5551     4.1744     0.0369 C.3     
  18 H18           -1.7327    -0.1812     1.2669 H       
  19 H19           -0.6854    -1.6204     1.2492 H       
  20 H20           -0.1829    -0.1650     2.1423 H       
  21 H21           -0.2238    -0.1421    -2.1359 H       
  22 H22           -0.7093    -1.6070    -1.2491 H       
  23 H23           -1.7565    -0.1678    -1.2314 H       
  24 H24            0.6950    -2.4326    -0.0176 H       
  25 H25            4.4180    -4.1851     2.0767 H       
  26 H26            5.9497    -4.2400     1.1718 H       
  27 H27            4.9793    -2.7480     1.1891 H       
  28 H28            3.5892    -6.1793    -0.9554 H       
  29 H29            5.1380    -6.2438    -0.0805 H       
  30 H30            3.6062    -6.1889     0.8244 H       
  31 H31            4.9554    -2.7346    -1.3093 H       
  32 H32            5.9259    -4.2266    -1.3265 H       
  33 H33            4.3771    -4.1621    -2.2014 H       
  34 H34           -0.6017     3.9472     0.9164 H       
  35 H35           -0.6102     3.9569    -0.8636 H       
  36 H36           -3.0869     3.8361    -0.8525 H       
  37 H37           -3.0784     3.8265     0.9275 H       
  38 H38           -2.5128     5.2636     0.0426 H       
@<TRIPOS>BOND
   1    1    2 1
   2    1    5 2
   3    1    6 1
   4    2    3 1
   5    2    4 1
   6    2    7 1
   7    3   18 1
   8    3   19 1
   9    3   20 1
  10    4   21 1
  11    4   22 1
  12    4   23 1
  13    6   16 1
  14    7    8 1
  15    8    9 am
  16    8   24 1
  17    9   10 2
  18    9   11 1
  19   11   12 1
  20   12   13 1
  21   12   14 1
  22   12   15 1
  23   13   25 1
  24   13   26 1
  25   13   27 1
  26   14   28 1
  27   14   29 1
  28   14   30 1
  29   15   31 1
  30   15   32 1
  31   15   33 1
  32   16   17 1
  33   16   34 1
  34   16   35 1
  35   17   36 1
  36   17   37 1
  37   17   38 1

#	End of record

