#	Name: ASD03331859
#	Creating user name:	WinNT
#	Creation time:	15. 06. 2019 20:40

#	Modifying user name:	WinNT
#	Modification time:	15. 06. 2019 20:40

#	Program:	/corina/corina34_cracker 3.40 0067  02.08.2006

@<TRIPOS>MOLECULE
ASD03331859
  44   46    0    0    0
SMALL
NO_CHARGES


@<TRIPOS>ATOM
   1 C1             1.1669    -0.4242    -1.2311 C.ar    
   2 C2             0.6548     0.0107    -2.4419 C.ar    
   3 C3             1.1654     1.1488    -3.0430 C.ar    
   4 C4             2.1869     1.8526    -2.4358 C.ar    
   5 C5             2.7015     1.4184    -1.2215 C.ar    
   6 C6             2.1881     0.2770    -0.6203 C.ar    
   7 N7             3.7377     2.1304    -0.6043 N.am    
   8 C8             3.7768     3.4748    -0.6916 C.2     
   9 N9             4.7205     4.1664    -0.0226 N.am    
  10 O10            2.9607     4.0637    -1.3740 O.2     
  11 C11            4.8219     5.5523    -0.1887 C.ar    
  12 C12            3.7716     7.6857    -0.5306 C.ar    
  13 C13            3.6755     6.3167    -0.3657 C.ar    
  14 C14            6.0665     6.1637    -0.1708 C.ar    
  15 C15            6.1625     7.5430    -0.3366 C.ar    
  16 C16            5.0069     8.3013    -0.5194 C.ar    
  17 C17            7.4904     8.2036    -0.3181 C.ar    
  18 N18            8.5774     7.4651    -0.1425 N.ar    
  19 C19            9.7799     8.0187    -0.1201 C.ar    
  20 C20            9.8980     9.3861    -0.2827 C.ar    
  21 C21            8.7352    10.1385    -0.4658 C.ar    
  22 N22            7.5612     9.5170    -0.4830 N.ar    
  23 N23            8.8058    11.5122    -0.6323 N.pl3   
  24 C24           10.1101    12.1726    -0.7269 C.3     
  25 C25            7.5761    12.3043    -0.7138 C.3     
  26 F26           -0.3441    -0.6766    -3.0377 F       
  27 H27            0.7645    -1.3098    -0.7618 H       
  28 H28            0.7649     1.4861    -3.9876 H       
  29 H29            2.5854     2.7398    -2.9053 H       
  30 H30            2.5870    -0.0622     0.3242 H       
  31 H31            4.4271     1.6560    -0.1139 H       
  32 H32            5.3293     3.7035     0.5741 H       
  33 H33            2.8774     8.2754    -0.6687 H       
  34 H34            2.7065     5.8398    -0.3750 H       
  35 H35            6.9587     5.5720    -0.0285 H       
  36 H36            5.0781     9.3712    -0.6485 H       
  37 H37           10.6591     7.4082     0.0239 H       
  38 H38           10.8673     9.8623    -0.2681 H       
  39 H39           10.4219    12.2133    -1.7706 H       
  40 H40           10.0342    13.1851    -0.3306 H       
  41 H41           10.8445    11.6106    -0.1499 H       
  42 H42            7.2828    12.6238     0.2862 H       
  43 H43            7.7489    13.1803    -1.3390 H       
  44 H44            6.7816    11.6982    -1.1492 H       
@<TRIPOS>BOND
   1    1    2 ar
   2    1    6 ar
   3    1   27 1
   4    2    3 ar
   5    2   26 1
   6    3    4 ar
   7    3   28 1
   8    4    5 ar
   9    4   29 1
  10    5    6 ar
  11    5    7 1
  12    6   30 1
  13    7    8 am
  14    7   31 1
  15    8    9 am
  16    8   10 2
  17    9   11 1
  18    9   32 1
  19   11   14 ar
  20   11   13 ar
  21   12   13 ar
  22   12   16 ar
  23   12   33 1
  24   13   34 1
  25   14   15 ar
  26   14   35 1
  27   15   16 ar
  28   15   17 1
  29   16   36 1
  30   17   18 ar
  31   17   22 ar
  32   18   19 ar
  33   19   20 ar
  34   19   37 1
  35   20   21 ar
  36   20   38 1
  37   21   22 ar
  38   21   23 1
  39   23   24 1
  40   23   25 1
  41   24   39 1
  42   24   40 1
  43   24   41 1
  44   25   42 1
  45   25   43 1
  46   25   44 1

#	End of record

