#	Name: ASD01884209
#	Creating user name:	WinNT
#	Creation time:	15. 06. 2019 19:47

#	Modifying user name:	WinNT
#	Modification time:	15. 06. 2019 19:47

#	Program:	/corina/corina34_cracker 3.40 0067  02.08.2006

@<TRIPOS>MOLECULE
ASD01884209
  36   39    0    0    0
SMALL
NO_CHARGES


@<TRIPOS>ATOM
   1 S1            -0.0219     1.7672     0.0118 S.3     
   2 C2             0.0021    -0.0041     0.0020 C.2     
   3 N3             1.2906    -0.3577    -0.0122 N.am    
   4 C4             2.2518     0.6359    -0.0160 C.ar    
   5 C5             1.7392     1.9355    -0.0042 C.ar    
   6 C6             2.5663     3.0408    -0.0068 C.ar    
   7 C7             3.9501     2.8710    -0.0216 C.ar    
   8 C8             4.4768     1.5779    -0.0336 C.ar    
   9 C9             3.6482     0.4840    -0.0306 C.ar    
  10 O10           -0.9607    -0.7487     0.0078 O.2     
  11 C11            4.8500     4.0473    -0.0251 C.ar    
  12 C12            5.7240     6.0059     1.0633 C.ar    
  13 C13            6.5380     6.2590    -0.0272 C.ar    
  14 C14            5.6730     4.3059    -1.1370 C.ar    
  15 C15            1.6772    -1.7708    -0.0230 C.3     
  16 C16            1.7984    -2.2553    -1.4692 C.3     
  17 C17            2.3090    -3.6796    -1.6966 C.3     
  18 C18            0.8336    -3.3492    -1.9309 C.3     
  19 F19            3.1067    -3.9077    -2.8230 F       
  20 F20            2.6293    -4.4391    -0.5662 F       
  21 C21            4.8828     4.9084     1.0704 C.ar    
  22 F22            4.0921     4.6708     2.1398 F       
  23 C23            6.5169     5.4207    -1.1258 C.ar    
  24 F24            7.3148     5.6752    -2.1859 F       
  25 C25            5.6466     3.4331    -2.2720 C.1     
  26 N26            5.6257     2.7407    -3.1723 N.1     
  27 H27            2.1427     4.0342     0.0022 H       
  28 H28            5.5476     1.4372    -0.0455 H       
  29 H29            4.0757    -0.5077    -0.0397 H       
  30 H30            5.7490     6.6679     1.9162 H       
  31 H31            7.1908     7.1194    -0.0213 H       
  32 H32            2.6362    -1.8890     0.4814 H       
  33 H33            0.9194    -2.3587     0.4949 H       
  34 H34            2.0844    -1.4959    -2.1970 H       
  35 H35            0.1124    -3.7238    -1.2044 H       
  36 H36            0.4845    -3.3097    -2.9627 H       
@<TRIPOS>BOND
   1    1    2 1
   2    1    5 1
   3    2    3 am
   4    2   10 2
   5    3    4 1
   6    3   15 1
   7    4    5 ar
   8    4    9 ar
   9    5    6 ar
  10    6    7 ar
  11    6   27 1
  12    7    8 ar
  13    7   11 1
  14    8    9 ar
  15    8   28 1
  16    9   29 1
  17   11   21 ar
  18   11   14 ar
  19   12   13 ar
  20   12   21 ar
  21   12   30 1
  22   13   23 ar
  23   13   31 1
  24   14   25 1
  25   14   23 ar
  26   15   16 1
  27   15   32 1
  28   15   33 1
  29   16   17 1
  30   16   18 1
  31   16   34 1
  32   17   18 1
  33   17   19 1
  34   17   20 1
  35   18   35 1
  36   18   36 1
  37   21   22 1
  38   23   24 1
  39   25   26 3

#	End of record

