#	Name: ASD01916252
#	Creating user name:	WinNT
#	Creation time:	15. 06. 2019 20:07

#	Modifying user name:	WinNT
#	Modification time:	15. 06. 2019 20:07

#	Program:	/corina/corina34_cracker 3.40 0067  02.08.2006

@<TRIPOS>MOLECULE
ASD01916252
  35   37    0    0    0
SMALL
NO_CHARGES


@<TRIPOS>ATOM
   1 C1            -0.0453     1.3262    -0.2463 C.ar    
   2 C2             0.0402    -0.0536    -0.1719 C.ar    
   3 C3             1.2354    -0.6580     0.1706 C.ar    
   4 C4             2.3588     0.1243     0.4421 C.ar    
   5 C5             2.2700     1.5148     0.3664 C.ar    
   6 C6             1.0681     2.1108     0.0225 C.ar    
   7 O7             0.9786     3.4647    -0.0520 O.3     
   8 C8             1.4745     4.0770    -1.1594 C.ar    
   9 C9             1.4093     5.4595    -1.2999 C.ar    
  10 N10            1.9032     6.0177    -2.3928 N.ar    
  11 C11            2.4507     5.2824    -3.3396 C.ar    
  12 N12            2.5313     3.9704    -3.2434 N.ar    
  13 C13            2.0656     3.3379    -2.1790 C.ar    
  14 F14           -1.0472    -0.8113    -0.4342 F       
  15 C15            3.6386    -0.5180     0.8092 C.2     
  16 N16            3.7219    -1.8612     0.8821 N.am    
  17 O17            4.6157     0.1653     1.0453 O.2     
  18 C18            4.9481    -2.4693     1.1231 C.ar    
  19 C19            5.0459    -3.8576     1.0802 C.ar    
  20 C20            6.2661    -4.4555     1.3203 C.ar    
  21 C21            7.3676    -3.6331     1.6002 C.ar    
  22 C22            7.1899    -2.2485     1.6254 C.ar    
  23 N23            6.0089    -1.7194     1.3851 N.ar    
  24 C24            8.6550    -4.2053     1.8567 C.1     
  25 N25            9.6763    -4.6593     2.0602 N.1     
  26 H26           -0.9801     1.7936    -0.5187 H       
  27 H27            1.2997    -1.7345     0.2284 H       
  28 H28            3.1363     2.1248     0.5756 H       
  29 H29            0.9616     6.0682    -0.5282 H       
  30 H30            2.8445     5.7689    -4.2197 H       
  31 H31            2.1353     2.2626    -2.1067 H       
  32 H32            2.9260    -2.4034     0.7664 H       
  33 H33            4.1764    -4.4597     0.8618 H       
  34 H34            6.3705    -5.5301     1.2938 H       
  35 H35            8.0305    -1.6053     1.8400 H       
@<TRIPOS>BOND
   1    1    2 ar
   2    1    6 ar
   3    1   26 1
   4    2    3 ar
   5    2   14 1
   6    3    4 ar
   7    3   27 1
   8    4    5 ar
   9    4   15 1
  10    5    6 ar
  11    5   28 1
  12    6    7 1
  13    7    8 1
  14    8    9 ar
  15    8   13 ar
  16    9   10 ar
  17    9   29 1
  18   10   11 ar
  19   11   12 ar
  20   11   30 1
  21   12   13 ar
  22   13   31 1
  23   15   16 am
  24   15   17 2
  25   16   18 1
  26   16   32 1
  27   18   19 ar
  28   18   23 ar
  29   19   20 ar
  30   19   33 1
  31   20   21 ar
  32   20   34 1
  33   21   22 ar
  34   21   24 1
  35   22   23 ar
  36   22   35 1
  37   24   25 3

#	End of record

