#	Name: ASD01811382
#	Creating user name:	WinNT
#	Creation time:	15. 06. 2019 19:26

#	Modifying user name:	WinNT
#	Modification time:	15. 06. 2019 19:26

#	Program:	/corina/corina34_cracker 3.40 0067  02.08.2006

@<TRIPOS>MOLECULE
ASD01811382
  67   72    0    0    0
SMALL
NO_CHARGES


@<TRIPOS>ATOM
   1 C1             0.1448     1.1219     0.0285 C.ar    
   2 C2             0.2583    -0.2520     0.1388 C.ar    
   3 C3             1.5011    -0.8424     0.2350 C.ar    
   4 C4             2.6525    -0.0585     0.2211 C.ar    
   5 C5             2.5261     1.3229     0.1088 C.ar    
   6 C6             1.2832     1.9081     0.0137 C.ar    
   7 N7             4.0002    -0.4152     0.3037 N.am    
   8 C8             4.8136     0.6573     0.2530 C.2     
   9 C9             3.9270     1.8658     0.1224 C.3     
  10 O10            6.0254     0.6501     0.3032 O.2     
  11 C11            4.2396     2.6574    -1.1500 C.3     
  12 N12            4.5803     4.0343    -0.7220 N.3     
  13 C13            5.0710     3.9154     0.6758 C.3     
  14 C14            4.1386     2.8395     1.2924 C.3     
  15 C15            5.6093     4.6171    -1.5934 C.3     
  16 C16            5.0760     4.7068    -3.0259 C.3     
  17 C17            6.1289     5.3702    -3.9165 C.3     
  18 N18            6.4312     6.7122    -3.4027 N.3     
  19 C19            6.9892     6.6482    -2.0459 C.3     
  20 C20            5.9619     6.0229    -1.0995 C.3     
  21 C21            7.3348     7.4321    -4.3101 C.3     
  22 C22            4.4743    -1.7955     0.4313 C.3     
  23 C23            4.6948    -2.3796    -0.9403 C.ar    
  24 C24            5.8533    -2.0820    -1.6396 C.ar    
  25 C25            6.0594    -2.6162    -2.8978 C.ar    
  26 C26            5.1000    -3.4544    -3.4608 C.ar    
  27 C27            3.9375    -3.7496    -2.7526 C.ar    
  28 C28            3.7430    -3.2155    -1.4944 C.ar    
  29 F29            6.7822    -1.2684    -1.0915 F       
  30 C30            5.3155    -4.0309    -4.8121 C.2     
  31 C31            6.4368    -3.8198    -5.6378 C.2     
  32 N32            6.2594    -4.4938    -6.7432 N.2     
  33 N33            5.0282    -5.1562    -6.6677 N.pl3   
  34 C34            4.4660    -4.8660    -5.4771 C.2     
  35 C35            4.4528    -6.0200    -7.7016 C.3     
  36 H36           -0.8302     1.5798    -0.0505 H       
  37 H37           -0.6304    -0.8655     0.1501 H       
  38 H38            1.5818    -1.9159     0.3217 H       
  39 H39            1.1971     2.9811    -0.0731 H       
  40 H40            5.0857     2.2084    -1.6703 H       
  41 H41            3.3666     2.6748    -1.8025 H       
  42 H42            6.1080     3.5802     0.6919 H       
  43 H43            4.9644     4.8638     1.2025 H       
  44 H44            3.1919     3.2810     1.6039 H       
  45 H45            4.6264     2.3387     2.1286 H       
  46 H46            6.5003     3.9895    -1.5750 H       
  47 H47            4.8633     3.7048    -3.3984 H       
  48 H48            4.1625     5.3015    -3.0375 H       
  49 H49            7.0373     4.7678    -3.9153 H       
  50 H50            5.7466     5.4485    -4.9342 H       
  51 H51            7.8935     6.0398    -2.0535 H       
  52 H52            7.2317     7.6547    -1.7050 H       
  53 H53            5.0624     6.6383    -1.0808 H       
  54 H54            6.3822     5.9612    -0.0956 H       
  55 H55            6.8647     7.5301    -5.2886 H       
  56 H56            7.5422     8.4228    -3.9058 H       
  57 H57            8.2679     6.8775    -4.4092 H       
  58 H58            5.4122    -1.8077     0.9865 H       
  59 H59            3.7296    -2.3877     0.9630 H       
  60 H60            6.9622    -2.3840    -3.4431 H       
  61 H61            3.1909    -4.3988    -3.1856 H       
  62 H62            2.8419    -3.4447    -0.9451 H       
  63 H63            7.2936    -3.2073    -5.3992 H       
  64 H64            3.5128    -5.2246    -5.1176 H       
  65 H65            4.7736    -7.0484    -7.5358 H       
  66 H66            3.3651    -5.9668    -7.6555 H       
  67 H67            4.7915    -5.6874    -8.6828 H       
@<TRIPOS>BOND
   1    1    2 ar
   2    1    6 ar
   3    1   36 1
   4    2    3 ar
   5    2   37 1
   6    3    4 ar
   7    3   38 1
   8    4    5 ar
   9    4    7 1
  10    5    6 ar
  11    5    9 1
  12    6   39 1
  13    7    8 am
  14    7   22 1
  15    8    9 1
  16    8   10 2
  17    9   11 1
  18    9   14 1
  19   11   12 1
  20   11   40 1
  21   11   41 1
  22   12   13 1
  23   12   15 1
  24   13   14 1
  25   13   42 1
  26   13   43 1
  27   14   44 1
  28   14   45 1
  29   15   16 1
  30   15   20 1
  31   15   46 1
  32   16   17 1
  33   16   47 1
  34   16   48 1
  35   17   18 1
  36   17   49 1
  37   17   50 1
  38   18   19 1
  39   18   21 1
  40   19   20 1
  41   19   51 1
  42   19   52 1
  43   20   53 1
  44   20   54 1
  45   21   55 1
  46   21   56 1
  47   21   57 1
  48   22   23 1
  49   22   58 1
  50   22   59 1
  51   23   24 ar
  52   23   28 ar
  53   24   25 ar
  54   24   29 1
  55   25   26 ar
  56   25   60 1
  57   26   27 ar
  58   26   30 1
  59   27   28 ar
  60   27   61 1
  61   28   62 1
  62   30   31 1
  63   30   34 2
  64   31   32 2
  65   31   63 1
  66   32   33 1
  67   33   34 1
  68   33   35 1
  69   34   64 1
  70   35   65 1
  71   35   66 1
  72   35   67 1

#	End of record

