#	Name: ASD01916660
#	Creating user name:	WinNT
#	Creation time:	15. 06. 2019 20:07

#	Modifying user name:	WinNT
#	Modification time:	15. 06. 2019 20:07

#	Program:	/corina/corina34_cracker 3.40 0067  02.08.2006

@<TRIPOS>MOLECULE
ASD01916660
  45   49    0    0    0
SMALL
NO_CHARGES


@<TRIPOS>ATOM
   1 C1            -0.0171     1.4098     0.0098 C.ar    
   2 C2             0.0021    -0.0041     0.0020 C.ar    
   3 C3            -1.1911    -0.7267     0.0131 C.ar    
   4 C4            -2.3843    -0.0661     0.0328 C.ar    
   5 C5            -2.4222     1.3366     0.0414 C.ar    
   6 C6            -1.2415     2.0753     0.0308 C.ar    
   7 N7             1.1581     2.0870     0.0022 N.2     
   8 C8             2.3059     1.4788     0.0006 C.2     
   9 N9             2.4085     0.1113    -0.0193 N.am    
  10 C10            1.3122    -0.6709    -0.0165 C.2     
  11 C11           -3.6839     2.0134     0.0624 C.1     
  12 O12            1.4027    -1.8849    -0.0284 O.2     
  13 C13           -4.7184     2.5683     0.0795 C.1     
  14 C14           -5.9801     3.2452     0.1004 C.ar    
  15 N15           -6.0161     4.5742     0.1086 N.ar    
  16 C16           -7.1561     5.2331     0.1274 C.ar    
  17 C17           -8.3654     4.5617     0.1393 C.ar    
  18 C18           -8.3751     3.1733     0.1313 C.ar    
  19 C19           -7.1648     2.5042     0.1063 C.ar    
  20 C20            3.5815     2.2855     0.0439 C.3     
  21 C21            4.1911     2.2015     1.4402 C.3     
  22 C22            5.1523     1.0229     1.5389 C.3     
  23 C23            4.4111    -0.2906     1.3185 C.3     
  24 C24            3.7509    -0.4773    -0.0494 C.3     
  25 C25            4.9734    -1.5428     1.9990 C.3     
  26 C26            3.6888    -0.9010     2.5255 C.3     
  27 F27            4.8550    -2.7576     1.3152 F       
  28 F28            6.1320    -1.3943     2.7688 F       
  29 H29           -1.1702    -1.8065     0.0057 H       
  30 H30           -3.3072    -0.6270     0.0414 H       
  31 H31           -1.2745     3.1548     0.0366 H       
  32 H32           -7.1468     6.3131     0.1339 H       
  33 H33           -9.2942     5.1126     0.1550 H       
  34 H34           -9.3071     2.6278     0.1403 H       
  35 H35           -7.1357     1.4246     0.0994 H       
  36 H36            4.2876     1.8879    -0.6852 H       
  37 H37            3.3614     3.3262    -0.1942 H       
  38 H38            4.7316     3.1241     1.6520 H       
  39 H39            3.3939     2.0770     2.1730 H       
  40 H40            5.9299     1.1284     0.7824 H       
  41 H41            5.6116     1.0151     2.5274 H       
  42 H42            3.6774    -1.5409    -0.2763 H       
  43 H43            4.3493     0.0188    -0.8135 H       
  44 H44            3.7464    -0.3626     3.4715 H       
  45 H45            2.7514    -1.4249     2.3388 H       
@<TRIPOS>BOND
   1    1    2 ar
   2    1    7 1
   3    1    6 ar
   4    2    3 ar
   5    2   10 1
   6    3    4 ar
   7    3   29 1
   8    4    5 ar
   9    4   30 1
  10    5    6 ar
  11    5   11 1
  12    6   31 1
  13    7    8 2
  14    8    9 1
  15    8   20 1
  16    9   10 am
  17    9   24 1
  18   10   12 2
  19   11   13 3
  20   13   14 1
  21   14   15 ar
  22   14   19 ar
  23   15   16 ar
  24   16   17 ar
  25   16   32 1
  26   17   18 ar
  27   17   33 1
  28   18   19 ar
  29   18   34 1
  30   19   35 1
  31   20   21 1
  32   20   36 1
  33   20   37 1
  34   21   22 1
  35   21   38 1
  36   21   39 1
  37   22   23 1
  38   22   40 1
  39   22   41 1
  40   23   24 1
  41   23   25 1
  42   23   26 1
  43   24   42 1
  44   24   43 1
  45   25   26 1
  46   25   27 1
  47   25   28 1
  48   26   44 1
  49   26   45 1

#	End of record

