#	Name: ASD01911385
#	Creating user name:	WinNT
#	Creation time:	15. 06. 2019 19:57

#	Modifying user name:	WinNT
#	Modification time:	15. 06. 2019 19:57

#	Program:	/corina/corina34_cracker 3.40 0067  02.08.2006

@<TRIPOS>MOLECULE
ASD01911385
  41   43    0    0    0
SMALL
NO_CHARGES


@<TRIPOS>ATOM
   1 N1            -0.0068     1.4098    -0.0031 N.2     
   2 N2            -0.0073     0.0098    -0.0453 N.pl3   
   3 C3             1.2422     1.8243     0.0385 C.2     
   4 C4             2.0818     0.6978     0.0241 C.2     
   5 C5             1.2896    -0.4115    -0.0278 C.2     
   6 C6             1.7532    -1.8166    -0.0587 C.ar    
   7 C7             1.6871     3.2394     0.0911 C.ar    
   8 C8             0.7474     4.2678     0.1003 C.ar    
   9 C9            -1.1920    -0.8502    -0.0988 C.3     
  10 C10           -1.6290    -1.0148    -1.5317 C.2     
  11 O11           -2.7015    -1.7671    -1.8241 O.3     
  12 O12           -1.0138    -0.4696    -2.4173 O.2     
  13 C13           -3.0645    -1.8810    -3.2253 C.3     
  14 C14            0.9280    -2.8150    -0.5758 C.ar    
  15 C15            1.1666     5.5820     0.1493 C.ar    
  16 C16            2.5170     5.8787     0.1887 C.ar    
  17 C17            3.4543     4.8616     0.1798 C.ar    
  18 C18            3.0459     3.5438     0.1372 C.ar    
  19 C19            1.3662    -4.1234    -0.6023 C.ar    
  20 C20            2.6209    -4.4454    -0.1173 C.ar    
  21 C21            3.4441    -3.4595     0.3974 C.ar    
  22 C22            3.0197    -2.1471     0.4241 C.ar    
  23 C23            0.4757    -5.2035    -1.1602 C.3     
  24 H24            3.1615     0.7083     0.0495 H       
  25 H25           -0.3073     4.0372     0.0689 H       
  26 H26           -0.9516    -1.8265     0.3221 H       
  27 H27           -1.9979    -0.3948     0.4767 H       
  28 H28           -3.2832    -0.8911    -3.6257 H       
  29 H29           -2.2369    -2.3228    -3.7803 H       
  30 H30           -3.9460    -2.5148    -3.3219 H       
  31 H31           -0.0521    -2.5648    -0.9544 H       
  32 H32            0.4389     6.3800     0.1564 H       
  33 H33            2.8407     6.9084     0.2262 H       
  34 H34            4.5074     5.0988     0.2107 H       
  35 H35            3.7785     2.7503     0.1307 H       
  36 H36            2.9594    -5.4708    -0.1401 H       
  37 H37            4.4224    -3.7173     0.7753 H       
  38 H38            3.6633    -1.3783     0.8258 H       
  39 H39            0.6609    -5.3111    -2.2290 H       
  40 H40            0.6899    -6.1467    -0.6576 H       
  41 H41           -0.5679    -4.9340    -0.9977 H       
@<TRIPOS>BOND
   1    1    2 1
   2    1    3 2
   3    2    9 1
   4    2    5 1
   5    3    4 1
   6    3    7 1
   7    4    5 2
   8    4   24 1
   9    5    6 1
  10    6   14 ar
  11    6   22 ar
  12    7    8 ar
  13    7   18 ar
  14    8   15 ar
  15    8   25 1
  16    9   10 1
  17    9   26 1
  18    9   27 1
  19   10   11 1
  20   10   12 2
  21   11   13 1
  22   13   28 1
  23   13   29 1
  24   13   30 1
  25   14   19 ar
  26   14   31 1
  27   15   16 ar
  28   15   32 1
  29   16   17 ar
  30   16   33 1
  31   17   18 ar
  32   17   34 1
  33   18   35 1
  34   19   20 ar
  35   19   23 1
  36   20   21 ar
  37   20   36 1
  38   21   22 ar
  39   21   37 1
  40   22   38 1
  41   23   39 1
  42   23   40 1
  43   23   41 1

#	End of record

