#	Name: ASD01411487
#	Creating user name:	WinNT
#	Creation time:	15. 06. 2019 19:19

#	Modifying user name:	WinNT
#	Modification time:	15. 06. 2019 19:19

#	Program:	/corina/corina34_cracker 3.40 0067  02.08.2006

@<TRIPOS>MOLECULE
ASD01411487
  73   76    0    0    0
SMALL
NO_CHARGES


@<TRIPOS>ATOM
   1 C1            -1.4185     2.9857    -0.0855 C.ar    
   2 C2            -0.9152     1.6965     0.0179 C.ar    
   3 C3            -1.7701     0.6114     0.0358 C.ar    
   4 C4            -3.1411     0.8020    -0.0491 C.ar    
   5 C5            -3.6596     2.1028    -0.1534 C.ar    
   6 C6            -2.7864     3.1958    -0.1659 C.ar    
   7 O7            -0.5674     4.0466    -0.1021 O.3     
   8 C8            -0.3513     4.7081     1.0624 C.ar    
   9 N9            -4.0019    -0.2946    -0.0313 N.am    
  10 C10           -4.5133    -0.8038     1.2437 C.3     
  11 C11           -4.0429    -2.2461     1.4423 C.3     
  12 C12           -6.0427    -0.7631     1.2325 C.3     
  13 N13           -1.0326     4.3691     2.1447 N.ar    
  14 C14           -4.3636    -0.8862    -1.1870 C.2     
  15 O15           -5.1755    -1.7871    -1.1788 O.2     
  16 C16           -3.7593    -0.4282    -2.4893 C.3     
  17 C17            0.5872     5.7310     1.1085 C.ar    
  18 C18            0.7981     6.3980     2.3028 C.ar    
  19 C19            0.0592     6.0161     3.4138 C.ar    
  20 C20           -0.8534     4.9862     3.2969 C.ar    
  21 C21            0.2553     6.7133     4.7353 C.3     
  22 C22           -4.7405    -0.7016    -3.6309 C.3     
  23 N23           -1.8505     7.7976     5.3104 N.2     
  24 N24           -0.6603     7.8534     4.8266 N.pl3   
  25 C25           -4.1270    -0.2366    -4.9531 C.3     
  26 C26           -2.3906     8.9931     5.2401 C.2     
  27 C27           -1.4224     9.8171     4.6616 C.2     
  28 N28           -0.3832     9.0462     4.4339 N.2     
  29 C29           -2.8245    -0.9982    -5.2067 C.3     
  30 C30           -1.8432    -0.7247    -4.0651 C.3     
  31 C31           -2.4568    -1.1897    -2.7429 C.3     
  32 C32           -2.2109    -0.5332    -6.5289 C.3     
  33 F33           -3.2743     4.4517    -0.2655 F       
  34 O34           -2.6181    -2.2721     1.5481 O.3     
  35 C35           -2.0731    -3.5796     1.7368 C.3     
  36 C36           -5.1138     2.3154    -0.2440 C.2     
  37 O37           -5.7702     2.4648     0.7678 O.2     
  38 O38           -5.7168     2.3442    -1.4489 O.3     
  39 C39            1.3656     6.1093    -0.1252 C.3     
  40 F40            2.2397     7.1586     0.1784 F       
  41 F41            2.0997     5.0047    -0.5703 F       
  42 F42            0.4800     6.5158    -1.1290 F       
  43 H43            0.1514     1.5405     0.0843 H       
  44 H44           -1.3695    -0.3884     0.1157 H       
  45 H45           -4.1393    -0.1841     2.0587 H       
  46 H46           -4.4824    -2.6491     2.3547 H       
  47 H47           -4.3552    -2.8506     0.5908 H       
  48 H48           -6.4193    -1.4626     0.4863 H       
  49 H49           -6.4208    -1.0424     2.2159 H       
  50 H50           -6.3776     0.2448     0.9874 H       
  51 H51           -3.5511     0.6405    -2.4373 H       
  52 H52            1.5215     7.1973     2.3688 H       
  53 H53           -1.4311     4.6853     4.1583 H       
  54 H54            0.0499     6.0164     5.5479 H       
  55 H55            1.2838     7.0664     4.8108 H       
  56 H56           -4.9487    -1.7703    -3.6829 H       
  57 H57           -5.6685    -0.1590    -3.4503 H       
  58 H58           -4.8260    -0.4314    -5.7665 H       
  59 H59           -3.9188     0.8321    -4.9011 H       
  60 H60           -3.3804     9.2800     5.5632 H       
  61 H61           -1.5099    10.8717     4.4461 H       
  62 H62           -3.0326    -2.0669    -5.2587 H       
  63 H63           -0.9153    -1.2673    -4.2457 H       
  64 H64           -1.6350     0.3439    -4.0131 H       
  65 H65           -1.7577    -0.9949    -1.9295 H       
  66 H66           -2.6650    -2.2584    -2.7949 H       
  67 H67           -2.0027     0.5355    -6.4769 H       
  68 H68           -1.2830    -1.0758    -6.7096 H       
  69 H69           -2.9099    -0.7280    -7.3422 H       
  70 H70           -2.3444    -4.2118     0.8913 H       
  71 H71           -0.9873    -3.5139     1.8076 H       
  72 H72           -2.4717    -4.0103     2.6553 H       
  73 H73           -6.6732     2.4867    -1.4578 H       
@<TRIPOS>BOND
   1    1    2 ar
   2    1    7 1
   3    1    6 ar
   4    2    3 ar
   5    2   43 1
   6    3    4 ar
   7    3   44 1
   8    4    5 ar
   9    4    9 1
  10    5    6 ar
  11    5   36 1
  12    6   33 1
  13    7    8 1
  14    8   17 ar
  15    8   13 ar
  16    9   10 1
  17    9   14 am
  18   10   11 1
  19   10   12 1
  20   10   45 1
  21   11   34 1
  22   11   46 1
  23   11   47 1
  24   12   48 1
  25   12   49 1
  26   12   50 1
  27   13   20 ar
  28   14   15 2
  29   14   16 1
  30   16   22 1
  31   16   31 1
  32   16   51 1
  33   17   18 ar
  34   17   39 1
  35   18   19 ar
  36   18   52 1
  37   19   20 ar
  38   19   21 1
  39   20   53 1
  40   21   24 1
  41   21   54 1
  42   21   55 1
  43   22   25 1
  44   22   56 1
  45   22   57 1
  46   23   24 1
  47   23   26 2
  48   24   28 1
  49   25   29 1
  50   25   58 1
  51   25   59 1
  52   26   27 1
  53   26   60 1
  54   27   28 2
  55   27   61 1
  56   29   30 1
  57   29   32 1
  58   29   62 1
  59   30   31 1
  60   30   63 1
  61   30   64 1
  62   31   65 1
  63   31   66 1
  64   32   67 1
  65   32   68 1
  66   32   69 1
  67   34   35 1
  68   35   70 1
  69   35   71 1
  70   35   72 1
  71   36   37 2
  72   36   38 1
  73   38   73 1
  74   39   40 1
  75   39   41 1
  76   39   42 1

#	End of record

