#	Name: ASD01883304
#	Creating user name:	WinNT
#	Creation time:	15. 06. 2019 19:46

#	Modifying user name:	WinNT
#	Modification time:	15. 06. 2019 19:46

#	Program:	/corina/corina34_cracker 3.40 0067  02.08.2006

@<TRIPOS>MOLECULE
ASD01883304
  51   53    0    0    0
SMALL
NO_CHARGES


@<TRIPOS>ATOM
   1 N1            -0.0162     1.3417     0.0094 N.am    
   2 C2             0.0021    -0.0041     0.0020 C.2     
   3 C3            -1.2166    -0.7275     0.0102 C.2     
   4 C4            -2.4257    -0.0118     0.0261 C.2     
   5 C5            -2.3786     1.3954     0.0332 C.2     
   6 C6            -1.1848     2.0319     0.0299 C.2     
   7 O7             1.0656    -0.6000    -0.0121 O.2     
   8 C8            -1.2158    -2.1595     0.0021 C.1     
   9 N9            -1.2152    -3.2954    -0.0044 N.1     
  10 C10            1.2511     2.0766     0.0013 C.3     
  11 C11            1.6785     2.3402    -1.4440 C.3     
  12 C12            3.0021     3.1077    -1.4525 C.3     
  13 C13            4.1048     2.2293    -0.8581 C.3     
  14 C14            3.3665     3.4800    -2.8911 C.3     
  15 C15           -3.7229    -0.7230     0.0347 C.ar    
  16 C16           -4.5720    -0.6188     1.1376 C.ar    
  17 C17           -5.7803    -1.2846     1.1392 C.ar    
  18 C18           -6.1508    -2.0546     0.0510 C.ar    
  19 C19           -5.3137    -2.1620    -1.0455 C.ar    
  20 C20           -4.1055    -1.4964    -1.0624 C.ar    
  21 C21           -7.4718    -2.7799     0.0602 C.3     
  22 S22           -8.7549    -1.7083    -0.6439 S.3     
  23 C23          -10.2021    -2.7091    -0.5511 C.ar    
  24 C24          -11.4326    -2.2325    -1.0050 C.ar    
  25 C25          -12.5410    -3.0473    -0.9145 C.ar    
  26 N26          -12.4484    -4.2623    -0.4065 N.ar    
  27 C27          -11.3030    -4.7495     0.0336 C.ar    
  28 C28          -10.1467    -4.0012    -0.0269 C.ar    
  29 H29           -3.2952     1.9665     0.0453 H       
  30 H30           -1.1612     3.1116     0.0354 H       
  31 H31            1.1240     3.0260     0.5214 H       
  32 H32            2.0167     1.4862     0.5046 H       
  33 H33            1.8057     1.3908    -1.9642 H       
  34 H34            0.9129     2.9306    -1.9474 H       
  35 H35            2.8998     4.0150    -0.8572 H       
  36 H36            4.2071     1.3220    -1.4534 H       
  37 H37            5.0477     2.7761    -0.8642 H       
  38 H38            3.8452     1.9641     0.1668 H       
  39 H39            2.5809     4.1058    -3.3145 H       
  40 H40            4.3094     4.0268    -2.8971 H       
  41 H41            3.4688     2.5727    -3.4864 H       
  42 H42           -4.2836    -0.0187     1.9879 H       
  43 H43           -6.4382    -1.2049     1.9920 H       
  44 H44           -5.6088    -2.7647    -1.8917 H       
  45 H45           -3.4531    -1.5807    -1.9190 H       
  46 H46           -7.3911    -3.6894    -0.5352 H       
  47 H47           -7.7369    -3.0389     1.0852 H       
  48 H48          -11.5155    -1.2393    -1.4211 H       
  49 H49          -13.4975    -2.6869    -1.2634 H       
  50 H50          -11.2706    -5.7487     0.4421 H       
  51 H51           -9.2130    -4.4058     0.3348 H       
@<TRIPOS>BOND
   1    1    2 am
   2    1   10 1
   3    1    6 1
   4    2    3 1
   5    2    7 2
   6    3    4 2
   7    3    8 1
   8    4    5 1
   9    4   15 1
  10    5    6 2
  11    5   29 1
  12    6   30 1
  13    8    9 3
  14   10   11 1
  15   10   31 1
  16   10   32 1
  17   11   12 1
  18   11   33 1
  19   11   34 1
  20   12   13 1
  21   12   14 1
  22   12   35 1
  23   13   36 1
  24   13   37 1
  25   13   38 1
  26   14   39 1
  27   14   40 1
  28   14   41 1
  29   15   16 ar
  30   15   20 ar
  31   16   17 ar
  32   16   42 1
  33   17   18 ar
  34   17   43 1
  35   18   19 ar
  36   18   21 1
  37   19   20 ar
  38   19   44 1
  39   20   45 1
  40   21   22 1
  41   21   46 1
  42   21   47 1
  43   22   23 1
  44   23   24 ar
  45   23   28 ar
  46   24   25 ar
  47   24   48 1
  48   25   26 ar
  49   25   49 1
  50   26   27 ar
  51   27   28 ar
  52   27   50 1
  53   28   51 1

#	End of record

