#	Name: ASD01140064
#	Creating user name:	WinNT
#	Creation time:	15. 06. 2019 18:59

#	Modifying user name:	WinNT
#	Modification time:	15. 06. 2019 18:59

#	Program:	/corina/corina34_cracker 3.40 0067  02.08.2006

@<TRIPOS>MOLECULE
ASD01140064
  65   68    0    0    0
SMALL
NO_CHARGES


@<TRIPOS>ATOM
   1 C1             0.0476     3.2900    -1.1293 C.3     
   2 C2            -0.3404     1.8118    -1.1551 C.3     
   3 C3             0.0731     1.1355     0.1542 C.3     
   4 C4             1.5819     1.2880     0.3497 C.3     
   5 C5             1.9602     2.7658     0.4070 C.3     
   6 C6             1.5522     3.4423    -0.9009 C.3     
   7 C7             2.0302     0.5537     1.6104 C.3     
   8 C8             3.5481     0.6928     1.7838 C.3     
   9 C9             4.1014     1.5046     0.6132 C.3     
  10 C10            3.4741     2.8975     0.6267 C.3     
  11 C11            5.5927     1.5641     0.5845 C.3     
  12 C12            6.1571     2.9834     0.8070 C.3     
  13 C13            5.6399     3.9106    -0.2623 C.3     
  14 C14            4.1139     3.8159    -0.3981 C.3     
  15 C15            6.3908     0.7613     1.6218 C.3     
  16 C16            7.8348     1.2730     1.3314 C.3     
  17 C17            7.6741     2.6962     0.7393 C.3     
  18 C18           -1.8581     1.6911    -1.3260 C.3     
  19 C19            1.2577     3.4576     1.5794 C.3     
  20 C20            5.8908     3.5338     2.2062 C.3     
  21 C21            8.4164     3.7019     1.5758 C.2     
  22 C22            8.8645     5.0052     0.9660 C.3     
  23 O23            8.6534     3.4651     2.7360 O.2     
  24 H24            2.0748     0.8294    -0.5177 H       
  25 O25            0.3080     1.1655    -2.2529 O.3     
  26 C26           -2.2715     2.3446    -2.6195 C.2     
  27 C27           -2.9559     1.6681    -3.5039 C.1     
  28 C28           -3.6403     0.9916    -4.3884 C.2     
  29 H29           -0.2080     3.7373    -2.0971 H       
  30 H30           -0.5136     3.8081    -0.3564 H       
  31 H31           -0.4730     1.5661     0.9867 H       
  32 H32           -0.1687     0.0688     0.0914 H       
  33 H33            2.0886     2.9823    -1.7323 H       
  34 H34            1.8008     4.5040    -0.8553 H       
  35 H35            1.5205     0.9446     2.4868 H       
  36 H36            1.7846    -0.5090     1.5092 H       
  37 H37            3.7622     1.2048     2.7209 H       
  38 H38            4.0048    -0.2966     1.7917 H       
  39 H39            3.7776     0.9983    -0.3173 H       
  40 H40            3.5660     3.3349     1.6256 H       
  41 H41            5.9299     1.2173    -0.4199 H       
  42 H42            5.9198     4.9450    -0.0204 H       
  43 H43            6.1070     3.6581    -1.2245 H       
  44 H44            3.8752     3.4560    -1.4080 H       
  45 H45            3.6867     4.8226    -0.2988 H       
  46 H46            6.0890     0.9732     2.6369 H       
  47 H47            6.3249    -0.3078     1.4101 H       
  48 H48            8.4060     1.3132     2.2565 H       
  49 H49            8.3200     0.6190     0.6099 H       
  50 H50            8.0047     2.7240    -0.2935 H       
  51 H51           -2.1390     0.6381    -1.3450 H       
  52 H52           -2.3580     2.1856    -0.4931 H       
  53 H53            1.5546     2.9808     2.5135 H       
  54 H54            1.5406     4.5100     1.6027 H       
  55 H55            0.1778     3.3743     1.4562 H       
  56 H56            6.4715     2.9688     2.9354 H       
  57 H57            6.1813     4.5836     2.2450 H       
  58 H58            4.8295     3.4417     2.4369 H       
  59 H59            8.0807     5.7526     1.0896 H       
  60 H60            9.7728     5.3457     1.4632 H       
  61 H61            9.0640     4.8601    -0.0957 H       
  62 H62            0.0798     1.5345    -3.1171 H       
  63 H63           -2.0022     3.3719    -2.8157 H       
  64 H64           -3.1264     0.4272    -5.1524 H       
  65 H65           -4.7198     0.9971    -4.3552 H       
@<TRIPOS>BOND
   1    1    2 1
   2    1    6 1
   3    1   29 1
   4    1   30 1
   5    2    3 1
   6    2   25 1
   7    2   18 1
   8    3    4 1
   9    3   31 1
  10    3   32 1
  11    4    5 1
  12    4    7 1
  13    4   24 1
  14    5    6 1
  15    5   19 1
  16    5   10 1
  17    6   33 1
  18    6   34 1
  19    7    8 1
  20    7   35 1
  21    7   36 1
  22    8    9 1
  23    8   37 1
  24    8   38 1
  25    9   10 1
  26    9   11 1
  27    9   39 1
  28   10   14 1
  29   10   40 1
  30   11   12 1
  31   11   15 1
  32   11   41 1
  33   12   13 1
  34   12   20 1
  35   12   17 1
  36   13   14 1
  37   13   42 1
  38   13   43 1
  39   14   44 1
  40   14   45 1
  41   15   16 1
  42   15   46 1
  43   15   47 1
  44   16   17 1
  45   16   48 1
  46   16   49 1
  47   17   21 1
  48   17   50 1
  49   18   26 1
  50   18   51 1
  51   18   52 1
  52   19   53 1
  53   19   54 1
  54   19   55 1
  55   20   56 1
  56   20   57 1
  57   20   58 1
  58   21   22 1
  59   21   23 2
  60   22   59 1
  61   22   60 1
  62   22   61 1
  63   25   62 1
  64   26   27 2
  65   26   63 1
  66   27   28 2
  67   28   64 1
  68   28   65 1

#	End of record

