#	Name: ASD02508267
#	Creating user name:	WinNT
#	Creation time:	15. 06. 2019 20:24

#	Modifying user name:	WinNT
#	Modification time:	15. 06. 2019 20:24

#	Program:	/corina/corina34_cracker 3.40 0067  02.08.2006

@<TRIPOS>MOLECULE
ASD02508267
  53   56    0    0    0
SMALL
NO_CHARGES


@<TRIPOS>ATOM
   1 C1             0.3961     0.5597     0.3458 C.ar    
   2 C2             0.1353    -0.7879     0.0986 C.ar    
   3 C3            -1.1732    -1.2382     0.0196 C.ar    
   4 C4            -2.2170    -0.3490     0.1862 C.ar    
   5 C5            -1.9593     0.9887     0.4311 C.ar    
   6 C6            -0.6579     1.4436     0.5166 C.ar    
   7 S7            -3.8812    -0.9190     0.0861 S.o2    
   8 N8            -4.5732    -0.6746     1.5706 N.am    
   9 C9            -5.4261     0.5350     1.8258 C.3     
  10 O10            1.7429     0.7113     0.3698 O.3     
  11 C11            2.3246    -0.4781     0.1493 C.2     
  12 N12            1.3737    -1.4180    -0.0208 N.am    
  13 O13           -4.5499    -0.0488    -0.8165 O.2     
  14 O14           -3.8129    -2.3264    -0.0979 O.2     
  15 O15            3.5236    -0.6768     0.1093 O.2     
  16 C16            1.5998    -2.8414    -0.2838 C.3     
  17 C17           -6.8025     0.0565     2.0043 C.3     
  18 N18           -6.9697    -0.9101     3.0882 N.3     
  19 C19           -8.2156    -0.7738     3.6895 C.ar    
  20 N20           -9.0585     0.1485     3.2508 N.ar    
  21 C21           -8.5679    -1.6111     4.7428 C.ar    
  22 C22           -9.8109    -1.4645     5.3320 C.ar    
  23 C23          -10.6628    -0.4818     4.8461 C.ar    
  24 C24          -10.2502     0.3107     3.7935 C.ar    
  25 C25           -3.1039     1.9523     0.6106 C.3     
  26 C26           -4.3727    -1.6187     2.6341 C.3     
  27 C27           -6.8259    -2.2116     2.4877 C.3     
  28 C28           -5.4109    -2.7642     2.7365 C.3     
  29 C29          -12.0265    -0.2864     5.4570 C.3     
  30 F30          -11.9406     0.6382     6.5033 F       
  31 F31          -12.9096     0.1921     4.4831 F       
  32 F32          -12.4953    -1.5082     5.9516 F       
  33 H33           -1.3761    -2.2815    -0.1721 H       
  34 H34           -0.4618     2.4882     0.7082 H       
  35 H35           -5.0891     1.0444     2.7285 H       
  36 H36           -5.3753     1.2128     0.9736 H       
  37 H37            2.6712    -3.0378    -0.3238 H       
  38 H38            1.1513    -3.4339     0.5137 H       
  39 H39            1.1450    -3.1115    -1.2368 H       
  40 H40           -7.4439     0.9148     2.2044 H       
  41 H41           -7.1310    -0.4069     1.0740 H       
  42 H42           -7.8805    -2.3657     5.0957 H       
  43 H43          -10.1121    -2.1004     6.1514 H       
  44 H44          -10.9097     1.0764     3.4123 H       
  45 H45           -3.4468     1.9205     1.6448 H       
  46 H46           -2.7704     2.9616     0.3693 H       
  47 H47           -3.9224     1.6719    -0.0524 H       
  48 H48           -3.3861    -2.0651     2.5100 H       
  49 H49           -4.3757    -1.0728     3.5775 H       
  50 H50           -7.5598    -2.8917     2.9202 H       
  51 H51           -6.9976    -2.1346     1.4141 H       
  52 H52           -5.1837    -3.5276     1.9924 H       
  53 H53           -5.3634    -3.2042     3.7326 H       
@<TRIPOS>BOND
   1    1    2 ar
   2    1   10 1
   3    1    6 ar
   4    2    3 ar
   5    2   12 1
   6    3    4 ar
   7    3   33 1
   8    4    5 ar
   9    4    7 1
  10    5    6 ar
  11    5   25 1
  12    6   34 1
  13    7    8 am
  14    7   13 2
  15    7   14 2
  16    8    9 1
  17    8   26 1
  18    9   17 1
  19    9   35 1
  20    9   36 1
  21   10   11 1
  22   11   12 am
  23   11   15 2
  24   12   16 1
  25   16   37 1
  26   16   38 1
  27   16   39 1
  28   17   18 1
  29   17   40 1
  30   17   41 1
  31   18   19 1
  32   18   27 1
  33   19   20 ar
  34   19   21 ar
  35   20   24 ar
  36   21   22 ar
  37   21   42 1
  38   22   23 ar
  39   22   43 1
  40   23   24 ar
  41   23   29 1
  42   24   44 1
  43   25   45 1
  44   25   46 1
  45   25   47 1
  46   26   28 1
  47   26   48 1
  48   26   49 1
  49   27   28 1
  50   27   50 1
  51   27   51 1
  52   28   52 1
  53   28   53 1
  54   29   30 1
  55   29   31 1
  56   29   32 1

#	End of record

