#	Name: ASD00310261
#	Creating user name:	WinNT
#	Creation time:	15. 06. 2019 18:34

#	Modifying user name:	WinNT
#	Modification time:	15. 06. 2019 18:34

#	Program:	/corina/corina34_cracker 3.40 0067  02.08.2006

@<TRIPOS>MOLECULE
ASD00310261
  32   33    0    0    0
SMALL
NO_CHARGES


@<TRIPOS>ATOM
   1 C1            -0.0434     1.3542     0.0287 C.ar    
   2 C2             0.0314    -0.0495    -0.0398 C.ar    
   3 C3             1.2801    -0.6716    -0.0731 C.ar    
   4 C4             2.4301     0.0895    -0.0389 C.ar    
   5 C5             2.3551     1.4708     0.0285 C.ar    
   6 C6             1.1289     2.1041     0.0624 C.ar    
   7 C7            -1.3612     2.0298     0.0587 C.ar    
   8 C8            -2.3353     1.7043    -0.8853 C.ar    
   9 C9            -3.5609     2.3346    -0.8543 C.ar    
  10 C10           -3.8263     3.2929     0.1151 C.ar    
  11 C11           -2.8587     3.6197     1.0562 C.ar    
  12 C12           -1.6332     2.9887     1.0346 C.ar    
  13 C13           -1.1659    -0.8342    -0.0746 C.1     
  14 N14           -2.1158    -1.4567    -0.1021 N.1     
  15 N15            3.7526    -0.5744    -0.0740 N.pl3   
  16 O16            4.6729    -0.0664    -0.6892 O.2     
  17 O17            3.9205    -1.6287     0.5123 O.2     
  18 C18            3.6208     2.2880     0.0657 C.3     
  19 O19           -5.0349     3.9124     0.1426 O.3     
  20 C20           -5.2408     4.8879     1.1664 C.3     
  21 H21            1.3461    -1.7483    -0.1254 H       
  22 H22            1.0792     3.1817     0.1146 H       
  23 H23           -2.1293     0.9596    -1.6399 H       
  24 H24           -4.3155     2.0830    -1.5849 H       
  25 H25           -3.0681     4.3659     1.8083 H       
  26 H26           -0.8827     3.2401     1.7695 H       
  27 H27            3.9778     2.4513    -0.9512 H       
  28 H28            3.4189     3.2491     0.5386 H       
  29 H29            4.3810     1.7547     0.6364 H       
  30 H30           -6.2439     5.3044     1.0749 H       
  31 H31           -5.1303     4.4178     2.1436 H       
  32 H32           -4.5052     5.6854     1.0616 H       
@<TRIPOS>BOND
   1    1    2 ar
   2    1    6 ar
   3    1    7 1
   4    2    3 ar
   5    2   13 1
   6    3    4 ar
   7    3   21 1
   8    4    5 ar
   9    4   15 1
  10    5    6 ar
  11    5   18 1
  12    6   22 1
  13    7    8 ar
  14    7   12 ar
  15    8    9 ar
  16    8   23 1
  17    9   10 ar
  18    9   24 1
  19   10   11 ar
  20   10   19 1
  21   11   12 ar
  22   11   25 1
  23   12   26 1
  24   13   14 3
  25   15   16 2
  26   15   17 2
  27   18   27 1
  28   18   28 1
  29   18   29 1
  30   19   20 1
  31   20   30 1
  32   20   31 1
  33   20   32 1

#	End of record

