#	Name: ASD01140564
#	Creating user name:	WinNT
#	Creation time:	15. 06. 2019 19:01

#	Modifying user name:	WinNT
#	Modification time:	15. 06. 2019 19:01

#	Program:	/corina/corina34_cracker 3.40 0067  02.08.2006

@<TRIPOS>MOLECULE
ASD01140564
  70   75    0    0    0
SMALL
NO_CHARGES


@<TRIPOS>ATOM
   1 C1            -0.2925     1.5124    -0.3495 C.3     
   2 C2            -0.2152    -0.0145    -0.2866 C.3     
   3 C3             0.4425    -0.4380     1.0282 C.3     
   4 C4             1.8531     0.1494     1.1064 C.3     
   5 C5             1.7747     1.6764     1.0426 C.3     
   6 C6             1.1203     2.0963    -0.2762 C.3     
   7 C7             1.9512     1.5645    -1.4447 C.3     
   8 C8             3.1870     2.2609     1.1183 C.3     
   9 C9             4.0197     1.7365    -0.0534 C.3     
  10 C10            3.3670     2.1571    -1.3708 C.3     
  11 C11            2.1252     1.4610    -3.9661 C.3     
  12 C12            1.2702     1.9032    -2.7664 C.3     
  13 C13            3.4724     2.1444    -3.8364 C.3     
  14 C14            4.4981     1.8405    -4.9235 C.3     
  15 C15            4.1474     1.6017    -2.5476 C.3     
  16 C16            5.5802     2.1218    -2.7055 C.3     
  17 C17            5.8734     1.8802    -4.2114 C.3     
  18 C18           -0.3902     0.0771     2.2039 C.3     
  19 H19            1.1800     2.0458     1.8780 H       
  20 H20            3.3144     3.2445    -1.4250 H       
  21 C21            3.2758     3.6572    -3.7196 C.3     
  22 C22            4.4394     2.8889    -6.0045 C.2     
  23 O23            5.1689     3.8499    -5.9539 O.2     
  24 C24            3.4704     2.7378    -7.1487 C.3     
  25 O25            0.5166    -1.8639     1.0859 O.3     
  26 H26            2.0187     0.4796    -1.3636 H       
  27 H27            4.1263     0.5120    -2.5361 H       
  28 H28            1.0682     3.1839    -0.3271 H       
  29 N29            3.6070     3.8783    -8.0581 N.pl3   
  30 N30            3.5074     5.2225    -7.6813 N.2     
  31 C31            3.8515     3.7887    -9.3724 C.2     
  32 C32            3.9107     5.0724    -9.8822 C.ar    
  33 C33            3.6814     5.9812    -8.7481 C.ar    
  34 C34            4.1314     5.6254   -11.1618 C.ar    
  35 C35            4.1238     6.9728   -11.3184 C.ar    
  36 C36            3.9023     7.8360   -10.2428 C.ar    
  37 C37            3.6912     7.3726    -8.9856 C.ar    
  38 H38           -0.7626     1.8143    -1.2855 H       
  39 H39           -0.8825     1.8814     0.4895 H       
  40 H40           -1.2207    -0.4318    -0.3408 H       
  41 H41            0.3769    -0.3831    -1.1242 H       
  42 H42            2.3204    -0.1515     2.0441 H       
  43 H43            2.4469    -0.2192     0.2700 H       
  44 H44            3.1333     3.3484     1.0678 H       
  45 H45            3.6535     1.9634     2.0574 H       
  46 H46            5.0263     2.1509     0.0019 H       
  47 H47            4.0713     0.6488    -0.0045 H       
  48 H48            2.2553     0.3789    -3.9499 H       
  49 H49            1.6440     1.7637    -4.8961 H       
  50 H50            0.3054     1.3980    -2.8104 H       
  51 H51            1.1105     2.9802    -2.8197 H       
  52 H52            4.3196     0.8515    -5.3454 H       
  53 H53            5.6332     3.1842    -2.4678 H       
  54 H54            6.2685     1.5511    -2.0821 H       
  55 H55            6.3909     0.9301    -4.3441 H       
  56 H56            6.4778     2.6948    -4.6103 H       
  57 H57           -1.3949    -0.3419     2.1487 H       
  58 H58            0.0783    -0.2246     3.1407 H       
  59 H59           -0.4471     1.1647     2.1599 H       
  60 H60            2.6285     3.8749    -2.8701 H       
  61 H61            4.2424     4.1390    -3.5727 H       
  62 H62            2.8163     4.0354    -4.6328 H       
  63 H63            3.6858     1.8154    -7.6879 H       
  64 H64            2.4525     2.7026    -6.7605 H       
  65 H65           -0.3431    -2.3045     1.0419 H       
  66 H66            3.9801     2.8753    -9.9342 H       
  67 H67            4.3055     4.9803   -12.0103 H       
  68 H68            4.2938     7.3890   -12.3003 H       
  69 H69            3.9053     8.9021   -10.4158 H       
  70 H70            3.5285     8.0638    -8.1719 H       
@<TRIPOS>BOND
   1    1    2 1
   2    1    6 1
   3    1   38 1
   4    1   39 1
   5    2    3 1
   6    2   40 1
   7    2   41 1
   8    3    4 1
   9    3   18 1
  10    3   25 1
  11    4    5 1
  12    4   42 1
  13    4   43 1
  14    5    6 1
  15    5    8 1
  16    5   19 1
  17    6    7 1
  18    6   28 1
  19    7   10 1
  20    7   26 1
  21    7   12 1
  22    8    9 1
  23    8   44 1
  24    8   45 1
  25    9   10 1
  26    9   46 1
  27    9   47 1
  28   10   15 1
  29   10   20 1
  30   11   12 1
  31   11   13 1
  32   11   48 1
  33   11   49 1
  34   12   50 1
  35   12   51 1
  36   13   15 1
  37   13   21 1
  38   13   14 1
  39   14   17 1
  40   14   22 1
  41   14   52 1
  42   15   16 1
  43   15   27 1
  44   16   17 1
  45   16   53 1
  46   16   54 1
  47   17   55 1
  48   17   56 1
  49   18   57 1
  50   18   58 1
  51   18   59 1
  52   21   60 1
  53   21   61 1
  54   21   62 1
  55   22   23 2
  56   22   24 1
  57   24   29 1
  58   24   63 1
  59   24   64 1
  60   25   65 1
  61   29   31 1
  62   29   30 1
  63   30   33 2
  64   31   32 2
  65   31   66 1
  66   32   34 ar
  67   32   33 ar
  68   33   37 ar
  69   34   35 ar
  70   34   67 1
  71   35   36 ar
  72   35   68 1
  73   36   37 ar
  74   36   69 1
  75   37   70 1

#	End of record

