#	Name: ASD01914395
#	Creating user name:	WinNT
#	Creation time:	15. 06. 2019 20:03

#	Modifying user name:	WinNT
#	Modification time:	15. 06. 2019 20:03

#	Program:	/corina/corina34_cracker 3.40 0067  02.08.2006

@<TRIPOS>MOLECULE
ASD01914395
  37   39    0    0    0
SMALL
NO_CHARGES


@<TRIPOS>ATOM
   1 C1            -0.0167     1.3806     0.0096 C.ar    
   2 C2             0.0021    -0.0041     0.0020 C.ar    
   3 C3             1.2096    -0.6818    -0.0132 C.ar    
   4 C4             2.3977     0.0225    -0.0203 C.ar    
   5 C5             2.3808     1.4105    -0.0127 C.ar    
   6 C6             1.1693     2.0882     0.0021 C.ar    
   7 N7             3.5864     2.1275    -0.0195 N.pl3   
   8 C8             4.6538     1.9285     0.8143 C.2     
   9 C9             5.6002     2.8369     0.4609 C.2     
  10 C10            6.9343     2.9979     1.0896 C.ar    
  11 C11            7.3550     2.1065     2.0746 C.ar    
  12 C12            8.5970     2.2606     2.6565 C.ar    
  13 C13            9.4240     3.2986     2.2635 C.ar    
  14 C14            9.0104     4.1872     1.2856 C.ar    
  15 C15            7.7734     4.0378     0.6930 C.ar    
  16 N16            5.1120     3.5661    -0.5631 N.2     
  17 C17            3.9141     3.1448    -0.8588 C.2     
  18 C18            3.0347     3.6986    -1.9501 C.3     
  19 C19            2.1910     4.8177    -1.3961 C.2     
  20 O20            2.2943     5.1361    -0.2237 O.co2   
  21 O21            1.4052     5.4047    -2.1203 O.co2   
  22 Cl22          10.9848     3.4873     2.9997 Cl      
  23 F23           -1.1591    -0.6946     0.0099 F       
  24 C24            9.9157     5.3154     0.8628 C.3     
  25 H25           -0.9594     1.9075     0.0170 H       
  26 H26            1.2224    -1.7617    -0.0191 H       
  27 H27            3.3392    -0.5064    -0.0315 H       
  28 H28            1.1543     3.1681     0.0081 H       
  29 H29            4.7290     1.1920     1.6006 H       
  30 H30            6.7102     1.2967     2.3824 H       
  31 H31            8.9240     1.5702     3.4200 H       
  32 H32            7.4517     4.7315    -0.0697 H       
  33 H33            3.6570     4.0794    -2.7600 H       
  34 H34            2.3867     2.9089    -2.3303 H       
  35 H35           10.5476     4.9848     0.0385 H       
  36 H36            9.3124     6.1641     0.5405 H       
  37 H37           10.5419     5.6133     1.7038 H       
@<TRIPOS>BOND
   1    1    2 ar
   2    1    6 ar
   3    1   25 1
   4    2    3 ar
   5    2   23 1
   6    3    4 ar
   7    3   26 1
   8    4    5 ar
   9    4   27 1
  10    5    6 ar
  11    5    7 1
  12    6   28 1
  13    7    8 1
  14    7   17 1
  15    8    9 2
  16    8   29 1
  17    9   10 1
  18    9   16 1
  19   10   11 ar
  20   10   15 ar
  21   11   12 ar
  22   11   30 1
  23   12   13 ar
  24   12   31 1
  25   13   14 ar
  26   13   22 1
  27   14   15 ar
  28   14   24 1
  29   15   32 1
  30   16   17 2
  31   17   18 1
  32   18   19 1
  33   18   33 1
  34   18   34 1
  35   19   20 ar
  36   19   21 ar
  37   24   35 1
  38   24   36 1
  39   24   37 1

#	End of record

