#	Name: ASD02398068
#	Creating user name:	WinNT
#	Creation time:	15. 06. 2019 20:20

#	Modifying user name:	WinNT
#	Modification time:	15. 06. 2019 20:20

#	Program:	/corina/corina34_cracker 3.40 0067  02.08.2006

@<TRIPOS>MOLECULE
ASD02398068
  51   53    0    0    0
SMALL
NO_CHARGES


@<TRIPOS>ATOM
   1 C1            -0.0167     1.3833     0.0096 C.ar    
   2 C2             0.0021    -0.0041     0.0020 C.ar    
   3 C3            -1.1853    -0.7097     0.0095 C.ar    
   4 C4            -2.3921    -0.0347     0.0242 C.ar    
   5 C5            -2.4135     1.3476     0.0318 C.ar    
   6 C6            -1.2285     2.0581     0.0306 C.ar    
   7 C7             1.3169    -0.7404    -0.0149 C.3     
   8 C8             1.4199    -1.6239     1.2277 C.3     
   9 C9             0.4550    -2.7749     1.1199 C.2     
  10 C10            0.2032    -3.3268    -0.0621 C.2     
  11 C11            0.8689    -2.8076    -1.2677 C.2     
  12 C12            1.3987    -1.5893    -1.2559 C.2     
  13 C13            2.0829    -1.0554    -2.4879 C.3     
  14 S14            1.0106     0.1659    -3.2937 S.3     
  15 C15            1.9619     0.6692    -4.6889 C.ar    
  16 C16           -3.6860    -0.8071     0.0313 C.3     
  17 C17           -4.1047    -1.0727     1.4544 C.2     
  18 O18           -3.4223    -0.6755     2.3690 O.2     
  19 O19           -5.2356    -1.7505     1.7060 O.3     
  20 C20            1.4585     1.6199    -5.5688 C.ar    
  21 C21            3.2197     0.1208    -4.9088 C.ar    
  22 C22            3.9623     0.5176    -6.0032 C.ar    
  23 C23            3.4557     1.4597    -6.8800 C.ar    
  24 C24            2.2067     2.0118    -6.6611 C.ar    
  25 C25           -0.7603    -4.4807    -0.1679 C.3     
  26 F26           -1.2586    -4.7901     1.1021 F       
  27 F27           -1.8194    -4.1280    -1.0112 F       
  28 F28           -0.0973    -5.5951    -0.6931 F       
  29 O29            1.1501     2.0799     0.0022 O.3     
  30 C30            1.0546     3.5057     0.0108 C.3     
  31 H31           -1.1711    -1.7896     0.0036 H       
  32 H32           -3.3573     1.8725     0.0432 H       
  33 H33           -1.2458     3.1379     0.0366 H       
  34 H34            2.1351    -0.0202    -0.0160 H       
  35 H35            2.4356    -2.0098     1.3143 H       
  36 H36            1.1817    -1.0335     2.1125 H       
  37 H37           -0.0333    -3.1530     2.0059 H       
  38 H38            0.9268    -3.4151    -2.1588 H       
  39 H39            3.0234    -0.5827    -2.2051 H       
  40 H40            2.2814    -1.8758    -3.1776 H       
  41 H41           -4.4587    -0.2262    -0.4723 H       
  42 H42           -3.5465    -1.7546    -0.4892 H       
  43 H43           -5.4627    -1.8964     2.6345 H       
  44 H44            0.4831     2.0512    -5.3988 H       
  45 H45            3.6161    -0.6147    -4.2244 H       
  46 H46            4.9400     0.0920    -6.1746 H       
  47 H47            4.0389     1.7684    -7.7349 H       
  48 H48            1.8143     2.7472    -7.3478 H       
  49 H49            2.0556     3.9369     0.0036 H       
  50 H50            0.5092     3.8386    -0.8722 H       
  51 H51            0.5262     3.8290     0.9076 H       
@<TRIPOS>BOND
   1    1    2 ar
   2    1   29 1
   3    1    6 ar
   4    2    3 ar
   5    2    7 1
   6    3    4 ar
   7    3   31 1
   8    4    5 ar
   9    4   16 1
  10    5    6 ar
  11    5   32 1
  12    6   33 1
  13    7    8 1
  14    7   12 1
  15    7   34 1
  16    8    9 1
  17    8   35 1
  18    8   36 1
  19    9   10 2
  20    9   37 1
  21   10   11 1
  22   10   25 1
  23   11   12 2
  24   11   38 1
  25   12   13 1
  26   13   14 1
  27   13   39 1
  28   13   40 1
  29   14   15 1
  30   15   20 ar
  31   15   21 ar
  32   16   17 1
  33   16   41 1
  34   16   42 1
  35   17   18 2
  36   17   19 1
  37   19   43 1
  38   20   24 ar
  39   20   44 1
  40   21   22 ar
  41   21   45 1
  42   22   23 ar
  43   22   46 1
  44   23   24 ar
  45   23   47 1
  46   24   48 1
  47   25   26 1
  48   25   27 1
  49   25   28 1
  50   29   30 1
  51   30   49 1
  52   30   50 1
  53   30   51 1

#	End of record

