#	Name: ASD01411002
#	Creating user name:	WinNT
#	Creation time:	15. 06. 2019 19:19

#	Modifying user name:	WinNT
#	Modification time:	15. 06. 2019 19:19

#	Program:	/corina/corina34_cracker 3.40 0067  02.08.2006

@<TRIPOS>MOLECULE
ASD01411002
  66   71    0    0    0
SMALL
NO_CHARGES


@<TRIPOS>ATOM
   1 C1            -0.0105     1.4129    -0.0008 C.ar    
   2 C2             0.0050     0.0178     0.1900 C.ar    
   3 C3            -1.1831    -0.6700     0.4083 C.ar    
   4 C4            -2.3702     0.0030     0.4384 C.ar    
   5 C5            -2.4050     1.3911     0.2501 C.ar    
   6 C6            -1.2258     2.0980     0.0362 C.ar    
   7 N7             1.2729     1.8073    -0.1886 N.2     
   8 C8             2.0670     0.7630    -0.1271 C.2     
   9 N9             1.3265    -0.3682     0.1059 N.pl3   
  10 C10            1.8433    -1.7324     0.2403 C.3     
  11 C11            1.4582    -2.2908     1.6117 C.3     
  12 C12            1.9979    -3.7155     1.7521 C.3     
  13 C13            1.3988    -4.5983     0.6554 C.3     
  14 C14            1.7839    -4.0398    -0.7160 C.3     
  15 C15            1.2442    -2.6151    -0.8564 C.3     
  16 C16           -3.6964     2.1065     0.2847 C.2     
  17 O17           -3.7286     3.3109     0.1215 O.2     
  18 N18           -4.8392     1.4244     0.4971 N.am    
  19 C19           -6.1203     2.1342     0.5314 C.3     
  20 C20           -7.2484     1.1685     0.1628 C.3     
  21 C21           -6.3567     2.6774     1.9170 C.2     
  22 O22           -5.5390     2.4908     2.7867 O.2     
  23 O23           -7.4758     3.3685     2.1851 O.3     
  24 C24           -7.0791     0.7202    -1.2660 C.2     
  25 C25           -7.6670     1.2579    -2.3464 C.2     
  26 N26           -7.2750     0.5879    -3.4728 N.pl3   
  27 C27           -6.4018    -0.4246    -3.1353 C.ar    
  28 C28           -6.2369    -0.3809    -1.7395 C.ar    
  29 C29           -5.7201    -1.3844    -3.8763 C.ar    
  30 C30           -4.8961    -2.2866    -3.2418 C.ar    
  31 C31           -4.7355    -2.2499    -1.8589 C.ar    
  32 C32           -5.3976    -1.3006    -1.1065 C.ar    
  33 O33           -3.9177    -3.1484    -1.2480 O.3     
  34 C34            3.5283     0.8004    -0.2846 C.2     
  35 C35            4.3134     1.9125    -0.2104 C.2     
  36 C36            5.6377     1.4876    -0.4199 C.2     
  37 C37            5.6002     0.1523    -0.6098 C.2     
  38 O38            4.3265    -0.2598    -0.5218 O.3     
  39 H39           -1.1669    -1.7400     0.5542 H       
  40 H40           -3.2892    -0.5382     0.6082 H       
  41 H41           -1.2517     3.1679    -0.1090 H       
  42 H42            2.9291    -1.7207     0.1446 H       
  43 H43            1.8850    -1.6619     2.3930 H       
  44 H44            0.3725    -2.3025     1.7074 H       
  45 H45            3.0837    -3.7038     1.6564 H       
  46 H46            1.7236    -4.1134     2.7291 H       
  47 H47            1.7833    -5.6133     0.7555 H       
  48 H48            0.3131    -4.6100     0.7511 H       
  49 H49            2.8697    -4.0281    -0.8117 H       
  50 H50            1.3571    -4.6687    -1.4973 H       
  51 H51            0.1585    -2.6268    -0.7607 H       
  52 H52            1.5186    -2.2173    -1.8334 H       
  53 H53           -4.8135     0.4635     0.6272 H       
  54 H54           -6.0988     2.9573    -0.1828 H       
  55 H55           -7.2142     0.3013     0.8222 H       
  56 H56           -8.2086     1.6721     0.2742 H       
  57 H57           -7.5831     3.6970     3.0882 H       
  58 H58           -8.3490     2.0952    -2.3289 H       
  59 H59           -7.5681     0.7938    -4.3743 H       
  60 H60           -5.8375    -1.4221    -4.9493 H       
  61 H61           -4.3694    -3.0299    -3.8219 H       
  62 H62           -5.2721    -1.2730    -0.0342 H       
  63 H63           -3.0008    -2.8527    -1.1651 H       
  64 H64            3.9824     2.9239    -0.0264 H       
  65 H65            6.5186     2.1124    -0.4272 H       
  66 H66            6.4549    -0.4808    -0.7972 H       
@<TRIPOS>BOND
   1    1    2 ar
   2    1    7 1
   3    1    6 ar
   4    2    3 ar
   5    2    9 1
   6    3    4 ar
   7    3   39 1
   8    4    5 ar
   9    4   40 1
  10    5    6 ar
  11    5   16 1
  12    6   41 1
  13    7    8 2
  14    8    9 1
  15    8   34 1
  16    9   10 1
  17   10   11 1
  18   10   15 1
  19   10   42 1
  20   11   12 1
  21   11   43 1
  22   11   44 1
  23   12   13 1
  24   12   45 1
  25   12   46 1
  26   13   14 1
  27   13   47 1
  28   13   48 1
  29   14   15 1
  30   14   49 1
  31   14   50 1
  32   15   51 1
  33   15   52 1
  34   16   17 2
  35   16   18 am
  36   18   19 1
  37   18   53 1
  38   19   20 1
  39   19   21 1
  40   19   54 1
  41   20   24 1
  42   20   55 1
  43   20   56 1
  44   21   22 2
  45   21   23 1
  46   23   57 1
  47   24   25 2
  48   24   28 1
  49   25   26 1
  50   25   58 1
  51   26   27 1
  52   26   59 1
  53   27   28 ar
  54   27   29 ar
  55   28   32 ar
  56   29   30 ar
  57   29   60 1
  58   30   31 ar
  59   30   61 1
  60   31   32 ar
  61   31   33 1
  62   32   62 1
  63   33   63 1
  64   34   35 2
  65   34   38 1
  66   35   36 1
  67   35   64 1
  68   36   37 2
  69   36   65 1
  70   37   38 1
  71   37   66 1

#	End of record

