#	Name: ASD01810932
#	Creating user name:	WinNT
#	Creation time:	15. 06. 2019 19:25

#	Modifying user name:	WinNT
#	Modification time:	15. 06. 2019 19:25

#	Program:	/corina/corina34_cracker 3.40 0067  02.08.2006

@<TRIPOS>MOLECULE
ASD01810932
  69   73    0    0    0
SMALL
NO_CHARGES


@<TRIPOS>ATOM
   1 C1            -7.3214     2.2133    -4.0019 C.1     
   2 C2            -6.3439     3.0075    -3.3204 C.ar    
   3 C3            -5.1730     2.4182    -2.8394 C.ar    
   4 C4            -4.2356     3.1893    -2.1838 C.ar    
   5 C5            -4.4538     4.5434    -2.0021 C.ar    
   6 C6            -5.6120     5.1338    -2.4758 C.ar    
   7 C7            -6.5547     4.3759    -3.1391 C.ar    
   8 N8            -8.0968     1.5832    -4.5424 N.1     
   9 N9            -2.4098     7.7982    -0.2276 N.am    
  10 C10           -1.8545     7.3097    -1.4972 C.3     
  11 C11           -2.9246     6.4838    -2.2180 C.3     
  12 C12           -3.4254     5.3792    -1.2846 C.3     
  13 C13           -4.0572     6.0078    -0.0405 C.3     
  14 C14           -3.0000     6.8284     0.7050 C.3     
  15 C15           -2.3735     9.1104     0.0781 C.2     
  16 C16           -3.0190     9.5994     1.3152 C.ar    
  17 C17           -3.9802    10.6109     1.2505 C.ar    
  18 C18           -4.5837    11.0684     2.4047 C.ar    
  19 C19           -4.2420    10.5301     3.6299 C.ar    
  20 C20           -3.2833     9.5185     3.7086 C.ar    
  21 C21           -2.6742     9.0484     2.5475 C.ar    
  22 O22           -1.8100     9.8917    -0.6632 O.2     
  23 N23           -2.8680     8.5809     7.1164 N.2     
  24 N24           -3.4133     9.2864     6.1905 N.2     
  25 C25           -2.9184     8.9436     5.0222 C.2     
  26 N26           -2.0014     7.9538     5.2513 N.pl3   
  27 C27           -2.0007     7.7538     6.5973 C.2     
  28 C28           -1.1548     6.7599     7.3507 C.3     
  29 C29           -0.3613     7.4865     8.4385 C.3     
  30 O30            0.4409     6.5440     9.1529 O.3     
  31 C31            1.2261     7.1227    10.1972 C.3     
  32 C32           -4.3588    11.2043    -0.0820 C.3     
  33 C33           -5.3451    10.2751    -0.7924 C.3     
  34 C34           -4.9054    11.0365     4.8848 C.3     
  35 C35           -4.7376    12.5190     5.2236 C.3     
  36 C36           -6.0854    11.9967     4.7219 C.3     
  37 H37           -5.0018     1.3612    -2.9799 H       
  38 H38           -3.3295     2.7348    -1.8112 H       
  39 H39           -5.7762     6.1912    -2.3303 H       
  40 H40           -7.4562     4.8388    -3.5126 H       
  41 H41           -1.5658     8.1566    -2.1196 H       
  42 H42           -0.9833     6.6855    -1.2988 H       
  43 H43           -3.7570     7.1301    -2.4961 H       
  44 H44           -2.4958     6.0359    -3.1144 H       
  45 H45           -2.5880     4.7480    -0.9869 H       
  46 H46           -4.8789     6.6587    -0.3391 H       
  47 H47           -4.4345     5.2212     0.6129 H       
  48 H48           -2.2221     6.1649     1.0830 H       
  49 H49           -3.4670     7.3577     1.5356 H       
  50 H50           -5.3260    11.8509     2.3494 H       
  51 H51           -1.9347     8.2633     2.6027 H       
  52 H52           -1.4630     7.4905     4.5906 H       
  53 H53           -1.7982     6.0096     7.8102 H       
  54 H54           -0.4647     6.2736     6.6612 H       
  55 H55            0.2822     8.2367     7.9790 H       
  56 H56           -1.0513     7.9728     9.1281 H       
  57 H57            0.5690     7.6014    10.9233 H       
  58 H58            1.8058     6.3426    10.6908 H       
  59 H59            1.9025     7.8654     9.7742 H       
  60 H60           -4.8239    12.1779     0.0728 H       
  61 H61           -3.4649    11.3220    -0.6945 H       
  62 H62           -4.8800     9.3015    -0.9472 H       
  63 H63           -6.2390    10.1574    -0.1799 H       
  64 H64           -5.6189    10.7043    -1.7562 H       
  65 H65           -4.9408    10.3313     5.7152 H       
  66 H66           -4.6631    12.7893     6.2769 H       
  67 H67           -4.1475    13.1282     4.5389 H       
  68 H68           -6.3819    12.2621     3.7072 H       
  69 H69           -6.8975    11.9233     5.4452 H       
@<TRIPOS>BOND
   1    1    2 1
   2    1    8 3
   3    2    3 ar
   4    2    7 ar
   5    3    4 ar
   6    3   37 1
   7    4    5 ar
   8    4   38 1
   9    5    6 ar
  10    5   12 1
  11    6    7 ar
  12    6   39 1
  13    7   40 1
  14    9   10 1
  15    9   14 1
  16    9   15 am
  17   10   11 1
  18   10   41 1
  19   10   42 1
  20   11   12 1
  21   11   43 1
  22   11   44 1
  23   12   13 1
  24   12   45 1
  25   13   14 1
  26   13   46 1
  27   13   47 1
  28   14   48 1
  29   14   49 1
  30   15   16 1
  31   15   22 2
  32   16   17 ar
  33   16   21 ar
  34   17   18 ar
  35   17   32 1
  36   18   19 ar
  37   18   50 1
  38   19   20 ar
  39   19   34 1
  40   20   21 ar
  41   20   25 1
  42   21   51 1
  43   23   24 1
  44   23   27 2
  45   24   25 2
  46   25   26 1
  47   26   27 1
  48   26   52 1
  49   27   28 1
  50   28   29 1
  51   28   53 1
  52   28   54 1
  53   29   30 1
  54   29   55 1
  55   29   56 1
  56   30   31 1
  57   31   57 1
  58   31   58 1
  59   31   59 1
  60   32   33 1
  61   32   60 1
  62   32   61 1
  63   33   62 1
  64   33   63 1
  65   33   64 1
  66   34   35 1
  67   34   36 1
  68   34   65 1
  69   35   36 1
  70   35   66 1
  71   35   67 1
  72   36   68 1
  73   36   69 1

#	End of record

