#	Name: ASD01420071
#	Creating user name:	WinNT
#	Creation time:	15. 06. 2019 19:20

#	Modifying user name:	WinNT
#	Modification time:	15. 06. 2019 19:20

#	Program:	/corina/corina34_cracker 3.40 0067  02.08.2006

@<TRIPOS>MOLECULE
ASD01420071
  32   34    0    0    0
SMALL
NO_CHARGES


@<TRIPOS>ATOM
   1 C1            -0.0144     1.2120     0.0087 C.2     
   2 O2             0.1288     0.0132     0.1551 O.2     
   3 C3             2.4669     1.5845    -0.1512 C.3     
   4 N4             1.0611     2.0002    -0.1871 N.am    
   5 C5             1.0496     3.4375    -0.4773 C.3     
   6 C6             2.4815     3.8885    -0.6175 C.ar    
   7 C7             3.0233     5.1336    -0.8874 C.ar    
   8 C8             4.3935     5.2907    -0.9661 C.ar    
   9 C9             5.2254     4.2031    -0.7747 C.ar    
  10 C10            4.6854     2.9605    -0.5049 C.ar    
  11 C11            3.3122     2.8024    -0.4263 C.ar    
  12 C12           -1.3639     1.8017     0.0394 C.ar    
  13 C13           -2.2643     1.4478     1.0556 C.ar    
  14 C14           -3.5304     2.0067     1.0776 C.ar    
  15 C15           -3.9062     2.9136     0.0976 C.ar    
  16 C16           -3.0143     3.2660    -0.9115 C.ar    
  17 C17           -1.7507     2.7209    -0.9409 C.ar    
  18 O18           -5.1487     3.4592     0.1224 O.3     
  19 O19           -1.8954     0.5603     2.0132 O.3     
  20 Br20          -3.5379     4.5034    -2.2421 Br      
  21 H21            2.7081     1.1820     0.8327 H       
  22 H22            2.6483     0.8286    -0.9152 H       
  23 H23            0.5113     3.6224    -1.4070 H       
  24 H24            0.5712     3.9758     0.3409 H       
  25 H25            2.3737     5.9833    -1.0370 H       
  26 H26            4.8147     6.2625    -1.1775 H       
  27 H27            6.2967     4.3248    -0.8364 H       
  28 H28            5.3354     2.1110    -0.3558 H       
  29 H29           -4.2262     1.7364     1.8581 H       
  30 H30           -1.0598     3.0000    -1.7227 H       
  31 H31           -5.2073     4.2812     0.6283 H       
  32 H32           -1.4865     0.9667     2.7895 H       
@<TRIPOS>BOND
   1    1    2 2
   2    1    4 am
   3    1   12 1
   4    3    4 1
   5    3   11 1
   6    3   21 1
   7    3   22 1
   8    4    5 1
   9    5    6 1
  10    5   23 1
  11    5   24 1
  12    6    7 ar
  13    6   11 ar
  14    7    8 ar
  15    7   25 1
  16    8    9 ar
  17    8   26 1
  18    9   10 ar
  19    9   27 1
  20   10   11 ar
  21   10   28 1
  22   12   13 ar
  23   12   17 ar
  24   13   14 ar
  25   13   19 1
  26   14   15 ar
  27   14   29 1
  28   15   16 ar
  29   15   18 1
  30   16   17 ar
  31   16   20 1
  32   17   30 1
  33   18   31 1
  34   19   32 1

#	End of record

