#	Name: ASD03330684
#	Creating user name:	WinNT
#	Creation time:	15. 06. 2019 20:37

#	Modifying user name:	WinNT
#	Modification time:	15. 06. 2019 20:37

#	Program:	/corina/corina34_cracker 3.40 0067  02.08.2006

@<TRIPOS>MOLECULE
ASD03330684
  66   68    0    0    0
SMALL
NO_CHARGES


@<TRIPOS>ATOM
   1 C1            -0.3205     1.1675     0.8859 C.2     
   2 N2            -0.3456    -0.1654     1.1221 N.pl3   
   3 C3             0.9844     1.5573     0.9192 C.2     
   4 N4             1.7358     0.4601     1.1566 N.2     
   5 C5             0.9451    -0.5806     1.2741 C.2     
   6 C6             1.3804    -1.9714     1.5295 C.ar    
   7 C7             1.4864     2.9297     0.7294 C.2     
   8 O8             0.7063     3.8391     0.5202 O.2     
   9 C9             3.3089     4.5417     0.5990 C.3     
  10 N10            2.8099     3.1773     0.7877 N.am    
  11 C11            3.4709     4.8233    -0.8961 C.3     
  12 C12            2.0976     4.8038    -1.5704 C.3     
  13 C13            4.1144     6.1979    -1.0894 C.3     
  14 C14            4.6427     4.6881     1.2851 C.2     
  15 N15            5.1763     5.9124     1.4667 N.am    
  16 O16            5.2359     3.7043     1.6738 O.2     
  17 C17           -1.5534    -0.9908     1.2092 C.3     
  18 C18           -2.4714    -0.6655     0.0269 C.3     
  19 C19           -3.3825     0.5033     0.3885 C.3     
  20 N20           -2.6986     1.4481     1.2740 N.3     
  21 C21           -1.5215     2.0374     0.6189 C.3     
  22 C22            2.6306    -2.4062     1.0888 C.ar    
  23 C23            0.5447    -2.8518     2.2172 C.ar    
  24 C24            0.9565    -4.1476     2.4522 C.ar    
  25 C25            2.1953    -4.5742     2.0079 C.ar    
  26 C26            3.0307    -3.7044     1.3301 C.ar    
  27 C27           -3.6195     2.4931     1.7409 C.3     
  28 C28            6.5050     6.0504     2.0681 C.3     
  29 C29            6.8716     7.5330     2.1600 C.3     
  30 C30            4.3625     3.7500    -1.5236 C.3     
  31 C31            8.2593     7.6772     2.7881 C.3     
  32 H32            2.6002     5.2503     1.0275 H       
  33 H33            3.4321     2.4520     0.9545 H       
  34 H34            1.4624     5.5685    -1.1234 H       
  35 H35            2.2130     5.0044    -2.6356 H       
  36 H36            1.6391     3.8245    -1.4327 H       
  37 H37            5.0752     6.2247    -0.5754 H       
  38 H38            4.2661     6.3817    -2.1530 H       
  39 H39            3.4604     6.9664    -0.6775 H       
  40 H40            4.6806     6.7020     1.1992 H       
  41 H41           -1.2774    -2.0448     1.1767 H       
  42 H42           -2.0734    -0.7781     2.1433 H       
  43 H43           -1.8660    -0.3987    -0.8394 H       
  44 H44           -3.0790    -1.5385    -0.2113 H       
  45 H45           -3.6812     1.0198    -0.5237 H       
  46 H46           -4.2718     0.1220     0.8903 H       
  47 H47           -1.3441     3.0360     1.0183 H       
  48 H48           -1.6951     2.0991    -0.4554 H       
  49 H49            3.2837    -1.7282     0.5596 H       
  50 H50           -0.4223    -2.5198     2.5651 H       
  51 H51            0.3105    -4.8301     2.9844 H       
  52 H52            2.5133    -5.5892     2.1950 H       
  53 H53            3.9965    -4.0435     0.9855 H       
  54 H54           -4.4425     2.0339     2.2885 H       
  55 H55           -3.0859     3.1811     2.3966 H       
  56 H56           -4.0134     3.0396     0.8840 H       
  57 H57            6.4985     5.6151     3.0674 H       
  58 H58            7.2388     5.5323     1.4509 H       
  59 H59            6.8781     7.9683     1.1607 H       
  60 H60            6.1378     8.0512     2.7773 H       
  61 H61            3.9040     2.7707    -1.3859 H       
  62 H62            4.4778     3.9506    -2.5888 H       
  63 H63            5.3408     3.7639    -1.0432 H       
  64 H64            8.2528     7.2419     3.7874 H       
  65 H65            8.9932     7.1590     2.1709 H       
  66 H66            8.5205     8.7334     2.8536 H       
@<TRIPOS>BOND
   1    1    2 1
   2    1    3 2
   3    1   21 1
   4    2   17 1
   5    2    5 1
   6    3    4 1
   7    3    7 1
   8    4    5 2
   9    5    6 1
  10    6   22 ar
  11    6   23 ar
  12    7    8 2
  13    7   10 am
  14    9   10 1
  15    9   11 1
  16    9   14 1
  17    9   32 1
  18   10   33 1
  19   11   12 1
  20   11   13 1
  21   11   30 1
  22   12   34 1
  23   12   35 1
  24   12   36 1
  25   13   37 1
  26   13   38 1
  27   13   39 1
  28   14   15 am
  29   14   16 2
  30   15   28 1
  31   15   40 1
  32   17   18 1
  33   17   41 1
  34   17   42 1
  35   18   19 1
  36   18   43 1
  37   18   44 1
  38   19   20 1
  39   19   45 1
  40   19   46 1
  41   20   21 1
  42   20   27 1
  43   21   47 1
  44   21   48 1
  45   22   26 ar
  46   22   49 1
  47   23   24 ar
  48   23   50 1
  49   24   25 ar
  50   24   51 1
  51   25   26 ar
  52   25   52 1
  53   26   53 1
  54   27   54 1
  55   27   55 1
  56   27   56 1
  57   28   29 1
  58   28   57 1
  59   28   58 1
  60   29   31 1
  61   29   59 1
  62   29   60 1
  63   30   61 1
  64   30   62 1
  65   30   63 1
  66   31   64 1
  67   31   65 1
  68   31   66 1

#	End of record

