#	Name: ASD07300667
#	Creating user name:	WinNT
#	Creation time:	15. 06. 2019 21:10

#	Modifying user name:	WinNT
#	Modification time:	15. 06. 2019 21:10

#	Program:	/corina/corina34_cracker 3.40 0067  02.08.2006

@<TRIPOS>MOLECULE
ASD07300667
  35   37    0    0    0
SMALL
NO_CHARGES


@<TRIPOS>ATOM
   1 C1            -0.0212     1.5115    -0.0376 C.2     
   2 C2            -0.6572     1.0895     1.2618 C.3     
   3 C3             2.6784     3.8585    -0.0532 C.2     
   4 C4             3.1111     5.2071    -0.1038 C.2     
   5 N5             1.3392     3.5990    -0.0903 N.pl3   
   6 N6             2.2192     6.1744    -0.1849 N.2     
   7 C7             0.9135     5.9077    -0.2204 C.2     
   8 C8             0.4577     4.6351    -0.1740 C.2     
   9 N9             3.3339     2.7061     0.0336 N.2     
  10 C10            2.4753     1.7014     0.0486 C.2     
  11 C11            1.1902     2.2310    -0.0281 C.2     
  12 N12            4.4641     5.5073    -0.0677 N.pl3   
  13 C13            4.9387     6.8883    -0.2490 C.3     
  14 C14            5.9008     7.2231     0.8966 C.3     
  15 O15            6.9075     6.2112     0.9768 O.3     
  16 C16            6.4042     4.9077     1.2793 C.3     
  17 C17            5.4676     4.4552     0.1590 C.3     
  18 C18            2.8260     0.2385     0.1375 C.3     
  19 Br19          -2.3968     0.2492     0.8974 Br      
  20 O20           -0.5505     1.2270    -1.0936 O.2     
  21 H21           -0.0081     0.3758     1.7691 H       
  22 H22           -0.8019     1.9639     1.8963 H       
  23 H23            0.2073     6.7221    -0.2871 H       
  24 H24           -0.6041     4.4400    -0.2037 H       
  25 H25            5.4591     6.9754    -1.2028 H       
  26 H26            4.0912     7.5734    -0.2287 H       
  27 H27            6.3696     8.1889     0.7077 H       
  28 H28            5.3489     7.2629     1.8357 H       
  29 H29            7.2352     4.2077     1.3659 H       
  30 H30            5.8542     4.9391     2.2198 H       
  31 H31            4.9701     3.5298     0.4493 H       
  32 H32            6.0421     4.2931    -0.7530 H       
  33 H33            2.7795    -0.0837     1.1777 H       
  34 H34            2.1180    -0.3415    -0.4545 H       
  35 H35            3.8341     0.0826    -0.2465 H       
@<TRIPOS>BOND
   1    1    2 1
   2    1   11 1
   3    1   20 2
   4    2   19 1
   5    2   21 1
   6    2   22 1
   7    3    4 1
   8    3    5 1
   9    3    9 2
  10    4    6 2
  11    4   12 1
  12    5    8 1
  13    5   11 1
  14    6    7 1
  15    7    8 2
  16    7   23 1
  17    8   24 1
  18    9   10 1
  19   10   11 2
  20   10   18 1
  21   12   13 1
  22   12   17 1
  23   13   14 1
  24   13   25 1
  25   13   26 1
  26   14   15 1
  27   14   27 1
  28   14   28 1
  29   15   16 1
  30   16   17 1
  31   16   29 1
  32   16   30 1
  33   17   31 1
  34   17   32 1
  35   18   33 1
  36   18   34 1
  37   18   35 1

#	End of record

