#	Name: ASD01120028
#	Creating user name:	WinNT
#	Creation time:	15. 06. 2019 18:58

#	Modifying user name:	WinNT
#	Modification time:	15. 06. 2019 18:58

#	Program:	/corina/corina34_cracker 3.40 0067  02.08.2006

@<TRIPOS>MOLECULE
ASD01120028
  52   55    0    0    0
SMALL
NO_CHARGES


@<TRIPOS>ATOM
   1 C1            -0.0907     1.3500     0.6498 C.ar    
   2 C2            -0.0525    -0.0391     0.4658 C.ar    
   3 C3            -1.1845    -0.7311     0.0959 C.ar    
   4 C4            -2.3851    -0.0371    -0.0973 C.ar    
   5 C5            -2.4161     1.3670     0.0911 C.ar    
   6 C6            -1.2527     2.0460     0.4722 C.ar    
   7 N7            -3.5155    -0.6644    -0.4583 N.ar    
   8 C8            -4.6254     0.0129    -0.6322 C.ar    
   9 N9            -4.7017     1.3240    -0.4682 N.ar    
  10 C10           -3.6439     2.0409    -0.1119 C.ar    
  11 N11           -3.7382     3.4079     0.0561 N.pl3   
  12 C12           -4.9822     4.0392    -0.0351 C.ar    
  13 O13            1.0401     2.0113     1.0147 O.3     
  14 O14            1.1137    -0.7099     0.6539 O.3     
  15 C15           -6.1281     3.3761     0.3767 C.ar    
  16 C16           -7.3663     4.0102     0.2836 C.ar    
  17 C17           -7.4444     5.3078    -0.2233 C.ar    
  18 C18           -6.2980     5.9600    -0.6308 C.ar    
  19 C19           -5.0698     5.3341    -0.5335 C.ar    
  20 C20           -8.5935     3.3091     0.7205 C.2     
  21 C21            0.9373     3.4262     1.1867 C.3     
  22 C22            2.2997     3.9908     1.5940 C.3     
  23 C23            1.0886    -2.1243     0.4510 C.3     
  24 C24            2.4824    -2.7011     0.7071 C.3     
  25 N25           -9.7942     3.8013     0.6790 N.2     
  26 C26          -10.7597     3.0063     1.1191 C.2     
  27 C27          -10.3516     1.7913     1.5498 C.2     
  28 S28           -8.6549     1.6747     1.3706 S.3     
  29 C29          -12.1742     3.4171     1.1380 C.2     
  30 N30          -12.5265     4.6409     0.6967 N.am    
  31 O31          -13.0242     2.6519     1.5519 O.2     
  32 H32           -1.1462    -1.8013    -0.0445 H       
  33 H33           -1.2718     3.1161     0.6172 H       
  34 H34           -5.5167    -0.5234    -0.9227 H       
  35 H35           -2.9413     3.9304     0.2373 H       
  36 H36           -6.0617     2.3717     0.7679 H       
  37 H37           -8.4020     5.8019    -0.2972 H       
  38 H38           -6.3607     6.9643    -1.0232 H       
  39 H39           -4.1763     5.8492    -0.8538 H       
  40 H40            0.6196     3.8840     0.2499 H       
  41 H41            0.2059     3.6454     1.9646 H       
  42 H42            2.6174     3.5330     2.5308 H       
  43 H43            3.0311     3.7715     0.8161 H       
  44 H44            2.2213     5.0700     1.7253 H       
  45 H45            0.3756    -2.5775     1.1398 H       
  46 H46            0.7894    -2.3389    -0.5749 H       
  47 H47            2.4632    -3.7798     0.5523 H       
  48 H48            3.1953    -2.2478     0.0183 H       
  49 H49            2.7816    -2.4864     1.7330 H       
  50 H50          -10.9949     1.0168     1.9407 H       
  51 H51          -11.8486     5.2511     0.3666 H       
  52 H52          -13.4580     4.9114     0.7091 H       
@<TRIPOS>BOND
   1    1    2 ar
   2    1   13 1
   3    1    6 ar
   4    2    3 ar
   5    2   14 1
   6    3    4 ar
   7    3   32 1
   8    4    5 ar
   9    4    7 ar
  10    5    6 ar
  11    5   10 ar
  12    6   33 1
  13    7    8 ar
  14    8    9 ar
  15    8   34 1
  16    9   10 ar
  17   10   11 1
  18   11   12 1
  19   11   35 1
  20   12   15 ar
  21   12   19 ar
  22   13   21 1
  23   14   23 1
  24   15   16 ar
  25   15   36 1
  26   16   17 ar
  27   16   20 1
  28   17   18 ar
  29   17   37 1
  30   18   19 ar
  31   18   38 1
  32   19   39 1
  33   20   25 2
  34   20   28 1
  35   21   22 1
  36   21   40 1
  37   21   41 1
  38   22   42 1
  39   22   43 1
  40   22   44 1
  41   23   24 1
  42   23   45 1
  43   23   46 1
  44   24   47 1
  45   24   48 1
  46   24   49 1
  47   25   26 1
  48   26   27 2
  49   26   29 1
  50   27   28 1
  51   27   50 1
  52   29   30 am
  53   29   31 2
  54   30   51 1
  55   30   52 1

#	End of record

