#	Name: ASD07930427
#	Creating user name:	WinNT
#	Creation time:	15. 06. 2019 21:12

#	Modifying user name:	WinNT
#	Modification time:	15. 06. 2019 21:12

#	Program:	/corina/corina34_cracker 3.40 0067  02.08.2006

@<TRIPOS>MOLECULE
ASD07930427
  45   47    0    0    0
SMALL
NO_CHARGES


@<TRIPOS>ATOM
   1 N1            -0.0198     1.3046    -0.0054 N.2     
   2 N2            -1.1709    -0.7291     0.0042 N.pl3   
   3 C3            -1.3930    -1.7681    -1.0068 C.3     
   4 C4            -0.2698    -2.8104    -0.9164 C.3     
   5 S5             1.3236    -1.9512    -1.1086 S.o2    
   6 N6             1.1984    -0.6977    -0.0179 N.am    
   7 C7            -0.0003     0.0014    -0.0061 C.2     
   8 C8             2.2992    -0.3510     0.8845 C.3     
   9 C9            -1.3912    -1.1346    -2.3995 C.3     
  10 C10           -2.7208    -2.4363    -0.7585 C.ar    
  11 C11           -2.9223    -3.7652    -1.1049 C.ar    
  12 C12           -4.1510    -4.3480    -0.8636 C.ar    
  13 N13           -5.1299    -3.6582    -0.3106 N.ar    
  14 C14           -4.9767    -2.3890     0.0338 C.ar    
  15 C15           -3.7649    -1.7404    -0.1748 C.ar    
  16 O16            2.3901    -2.7498    -0.6145 O.2     
  17 O17            1.4038    -1.3150    -2.3767 O.2     
  18 N18           -6.0381    -1.6986     0.6149 N.am    
  19 C19           -7.2454    -2.2874     0.7251 C.2     
  20 O20           -7.4342    -3.3833     0.2340 O.2     
  21 C21           -8.3394    -1.6011     1.4427 C.ar    
  22 C22           -9.5912    -2.2086     1.5586 C.ar    
  23 C23          -10.6083    -1.5630     2.2295 C.ar    
  24 C24          -10.3901    -0.3144     2.7879 C.ar    
  25 C25           -9.1504     0.2934     2.6764 C.ar    
  26 C26           -8.1238    -0.3447     2.0128 C.ar    
  27 Cl27         -11.6757     0.4924     3.6306 Cl      
  28 H28            0.8129     1.8022    -0.0131 H       
  29 H29           -1.8475    -0.5530     0.6766 H       
  30 H30           -0.3055    -3.3059     0.0538 H       
  31 H31           -0.3879    -3.5476    -1.7106 H       
  32 H32            2.9446     0.3846     0.4044 H       
  33 H33            1.8953     0.0668     1.8066 H       
  34 H34            2.8768    -1.2465     1.1137 H       
  35 H35           -0.4297    -0.6534    -2.5785 H       
  36 H36           -1.5563    -1.9073    -3.1503 H       
  37 H37           -2.1864    -0.3917    -2.4617 H       
  38 H38           -2.1268    -4.3374    -1.5588 H       
  39 H39           -4.3125    -5.3817    -1.1314 H       
  40 H40           -3.6426    -0.7051     0.1074 H       
  41 H41           -5.9082    -0.7940     0.9402 H       
  42 H42           -9.7627    -3.1820     1.1232 H       
  43 H43          -11.5771    -2.0318     2.3194 H       
  44 H44           -8.9864     1.2672     3.1135 H       
  45 H45           -7.1576     0.1299     1.9268 H       
@<TRIPOS>BOND
   1    1    7 2
   2    1   28 1
   3    2    3 1
   4    2    7 1
   5    2   29 1
   6    3    4 1
   7    3    9 1
   8    3   10 1
   9    4    5 1
  10    4   30 1
  11    4   31 1
  12    5    6 am
  13    5   16 2
  14    5   17 2
  15    6    7 1
  16    6    8 1
  17    8   32 1
  18    8   33 1
  19    8   34 1
  20    9   35 1
  21    9   36 1
  22    9   37 1
  23   10   11 ar
  24   10   15 ar
  25   11   12 ar
  26   11   38 1
  27   12   13 ar
  28   12   39 1
  29   13   14 ar
  30   14   15 ar
  31   14   18 1
  32   15   40 1
  33   18   19 am
  34   18   41 1
  35   19   20 2
  36   19   21 1
  37   21   22 ar
  38   21   26 ar
  39   22   23 ar
  40   22   42 1
  41   23   24 ar
  42   23   43 1
  43   24   25 ar
  44   24   27 1
  45   25   26 ar
  46   25   44 1
  47   26   45 1

#	End of record

