#	Name: ASD04882090
#	Creating user name:	WinNT
#	Creation time:	15. 06. 2019 20:54

#	Modifying user name:	WinNT
#	Modification time:	15. 06. 2019 20:54

#	Program:	/corina/corina34_cracker 3.40 0067  02.08.2006

@<TRIPOS>MOLECULE
ASD04882090
  77   81    0    0    0
SMALL
NO_CHARGES


@<TRIPOS>ATOM
   1 C1             2.2076     1.8454    -0.7979 C.ar    
   2 C2             2.2421     0.4678    -0.7100 C.ar    
   3 C3             1.0597    -0.2474    -0.5659 C.ar    
   4 C4            -0.1535     0.4265    -0.5108 C.ar    
   5 C5            -0.1808     1.8047    -0.5994 C.ar    
   6 C6             0.9977     2.5133    -0.7428 C.ar    
   7 C7            -1.4386    -0.3450    -0.3551 C.3     
   8 N8             1.0910    -1.6409    -0.4771 N.3     
   9 C9             0.6768    -2.0930     0.8585 C.3     
  10 C10            2.4231    -2.1605    -0.8162 C.3     
  11 C11            2.3943    -3.6904    -0.7846 C.3     
  12 N12            1.9802    -4.1425     0.5510 N.3     
  13 C13            0.6480    -3.6229     0.8901 C.3     
  14 C14            2.0113    -5.5317     0.6395 C.ar    
  15 C15            1.2227    -6.2991    -0.2096 C.ar    
  16 C16            2.8401    -6.1530     1.5784 C.ar    
  17 C17            2.8712    -7.5316     1.6657 C.ar    
  18 C18            2.0729    -8.3010     0.8140 C.ar    
  19 C19            1.2504    -7.6738    -0.1254 C.ar    
  20 N20            3.6389    -5.3783     2.4298 N.am    
  21 C21            3.8950    -5.8015     3.6835 C.2     
  22 C22            4.6408    -4.9344     4.6176 C.ar    
  23 O23            3.5118    -6.8972     4.0455 O.2     
  24 C24            2.1028    -9.7733     0.9036 C.2     
  25 O25            2.8220   -10.3183     1.7186 O.2     
  26 N26            1.3329   -10.5141     0.0821 N.am    
  27 C27            1.3625   -11.9761     0.1711 C.3     
  28 C28            0.4045   -12.5696    -0.8637 C.3     
  29 C29            0.4354   -14.0964    -0.7708 C.3     
  30 N30           -0.4819   -14.6646    -1.7617 N.am    
  31 C31           -0.1027   -15.0171    -3.1350 C.3     
  32 C32           -1.4332   -15.1498    -3.9088 C.3     
  33 C33           -2.4242   -15.4992    -2.7744 C.3     
  34 C34           -1.7777   -14.9355    -1.5282 C.2     
  35 O35           -2.3474   -14.7483    -0.4740 O.2     
  36 C36            5.0825    -3.6751     4.2055 C.ar    
  37 C37            4.9033    -5.3675     5.9210 C.ar    
  38 C38            5.6022    -4.5486     6.7894 C.ar    
  39 C39            6.0392    -3.3061     6.3705 C.ar    
  40 C40            5.7778    -2.8703     5.0825 C.ar    
  41 F41            4.4754    -6.5816     6.3309 F       
  42 H42            3.1267     2.4022    -0.9054 H       
  43 H43            3.1871    -0.0532    -0.7535 H       
  44 H44           -1.1239     2.3293    -0.5566 H       
  45 H45            0.9736     3.5908    -0.8114 H       
  46 H46           -1.6307    -0.5211     0.7033 H       
  47 H47           -2.2608     0.2284    -0.7832 H       
  48 H48           -1.3538    -1.3005    -0.8728 H       
  49 H49            1.3850    -1.7271     1.6020 H       
  50 H50           -0.3174    -1.7058     1.0813 H       
  51 H51            2.7020    -1.8226    -1.8143 H       
  52 H52            3.1511    -1.7955    -0.0917 H       
  53 H53            1.6862    -4.0563    -1.5281 H       
  54 H54            3.3885    -4.0776    -1.0075 H       
  55 H55            0.3691    -3.9608     1.8882 H       
  56 H56           -0.0800    -3.9879     0.1656 H       
  57 H57            0.5865    -5.8165    -0.9367 H       
  58 H58            3.5110    -8.0137     2.3900 H       
  59 H59            0.6334    -8.2672    -0.7838 H       
  60 H60            4.0077    -4.5375     2.1169 H       
  61 H61            0.7591   -10.0793    -0.5680 H       
  62 H62            2.3742   -12.3316    -0.0245 H       
  63 H63            1.0554   -12.2856     1.1701 H       
  64 H64           -0.6072   -12.2141    -0.6682 H       
  65 H65            0.7116   -12.2600    -1.8627 H       
  66 H66            1.4471   -14.4519    -0.9664 H       
  67 H67            0.1283   -14.4059     0.2281 H       
  68 H68            0.5103   -14.2284    -3.5713 H       
  69 H69            0.4362   -15.9645    -3.1461 H       
  70 H70           -1.7027   -14.2075    -4.3857 H       
  71 H71           -1.3796   -15.9549    -4.6417 H       
  72 H72           -3.3903   -15.0273    -2.9531 H       
  73 H73           -2.5369   -16.5797    -2.6857 H       
  74 H74            4.8800    -3.3326     3.2014 H       
  75 H75            5.8064    -4.8805     7.7966 H       
  76 H76            6.5839    -2.6702     7.0527 H       
  77 H77            6.1231    -1.8982     4.7628 H       
@<TRIPOS>BOND
   1    1    2 ar
   2    1    6 ar
   3    1   42 1
   4    2    3 ar
   5    2   43 1
   6    3    4 ar
   7    3    8 1
   8    4    5 ar
   9    4    7 1
  10    5    6 ar
  11    5   44 1
  12    6   45 1
  13    7   46 1
  14    7   47 1
  15    7   48 1
  16    8    9 1
  17    8   10 1
  18    9   13 1
  19    9   49 1
  20    9   50 1
  21   10   11 1
  22   10   51 1
  23   10   52 1
  24   11   12 1
  25   11   53 1
  26   11   54 1
  27   12   13 1
  28   12   14 1
  29   13   55 1
  30   13   56 1
  31   14   15 ar
  32   14   16 ar
  33   15   19 ar
  34   15   57 1
  35   16   17 ar
  36   16   20 1
  37   17   18 ar
  38   17   58 1
  39   18   19 ar
  40   18   24 1
  41   19   59 1
  42   20   21 am
  43   20   60 1
  44   21   22 1
  45   21   23 2
  46   22   36 ar
  47   22   37 ar
  48   24   25 2
  49   24   26 am
  50   26   27 1
  51   26   61 1
  52   27   28 1
  53   27   62 1
  54   27   63 1
  55   28   29 1
  56   28   64 1
  57   28   65 1
  58   29   30 1
  59   29   66 1
  60   29   67 1
  61   30   31 1
  62   30   34 am
  63   31   32 1
  64   31   68 1
  65   31   69 1
  66   32   33 1
  67   32   70 1
  68   32   71 1
  69   33   34 1
  70   33   72 1
  71   33   73 1
  72   34   35 2
  73   36   40 ar
  74   36   74 1
  75   37   38 ar
  76   37   41 1
  77   38   39 ar
  78   38   75 1
  79   39   40 ar
  80   39   76 1
  81   40   77 1

#	End of record

