#	Name: ASD01882115
#	Creating user name:	WinNT
#	Creation time:	15. 06. 2019 19:43

#	Modifying user name:	WinNT
#	Modification time:	15. 06. 2019 19:43

#	Program:	/corina/corina34_cracker 3.40 0067  02.08.2006

@<TRIPOS>MOLECULE
ASD01882115
  27   29    0    0    0
SMALL
NO_CHARGES


@<TRIPOS>ATOM
   1 C1            -0.0186     1.4610    -0.0192 C.2     
   2 C2             0.0002    -0.0026    -0.0712 C.2     
   3 C3             1.2394    -0.6454    -0.1488 C.2     
   4 C4             2.4108     0.1292    -0.1737 C.2     
   5 C5             2.3548     1.4751    -0.1242 C.2     
   6 N6             1.1699     2.1434    -0.0482 N.pl3   
   7 N7            -1.0041     2.3392     0.0606 N.2     
   8 C8            -0.5004     3.5736     0.0794 C.2     
   9 C9             0.8589     3.4867     0.0134 C.2     
  10 C10           -1.2179    -0.7550    -0.0430 C.1     
  11 N11           -2.1843    -1.3518    -0.0205 N.1     
  12 C12            1.8145     4.6131     0.0110 C.ar    
  13 C13            3.0969     4.4439    -0.5151 C.ar    
  14 C14            3.9840     5.5002    -0.5145 C.ar    
  15 C15            3.6057     6.7253     0.0058 C.ar    
  16 C16            2.3367     6.8998     0.5292 C.ar    
  17 C17            1.4376     5.8537     0.5297 C.ar    
  18 O18            1.3094    -1.9970    -0.1987 O.3     
  19 H19            3.3712    -0.3611    -0.2332 H       
  20 H20            3.2753     2.0397    -0.1453 H       
  21 H21           -1.0722     4.4878     0.1399 H       
  22 H22            3.3936     3.4881    -0.9212 H       
  23 H23            4.9763     5.3706    -0.9208 H       
  24 H24            4.3042     7.5489     0.0038 H       
  25 H25            2.0482     7.8584     0.9344 H       
  26 H26            0.4458     5.9926     0.9341 H       
  27 H27            2.2110    -2.3426    -0.2508 H       
@<TRIPOS>BOND
   1    1    2 1
   2    1    6 1
   3    1    7 2
   4    2    3 2
   5    2   10 1
   6    3    4 1
   7    3   18 1
   8    4    5 2
   9    4   19 1
  10    5    6 1
  11    5   20 1
  12    6    9 1
  13    7    8 1
  14    8    9 2
  15    8   21 1
  16    9   12 1
  17   10   11 3
  18   12   13 ar
  19   12   17 ar
  20   13   14 ar
  21   13   22 1
  22   14   15 ar
  23   14   23 1
  24   15   16 ar
  25   15   24 1
  26   16   17 ar
  27   16   25 1
  28   17   26 1
  29   18   27 1

#	End of record

