#	Name: ASD01880216
#	Creating user name:	WinNT
#	Creation time:	15. 06. 2019 19:40

#	Modifying user name:	WinNT
#	Modification time:	15. 06. 2019 19:40

#	Program:	/corina/corina34_cracker 3.40 0067  02.08.2006

@<TRIPOS>MOLECULE
ASD01880216
  44   46    0    0    0
SMALL
NO_CHARGES


@<TRIPOS>ATOM
   1 C1            -0.0184     1.5028     0.0103 C.3     
   2 C2             0.0021    -0.0041     0.0020 C.ar    
   3 C3             0.0229    -0.7006     1.1962 C.ar    
   4 C4             0.0416    -2.0819     1.1913 C.ar    
   5 C5             0.0396    -2.7702    -0.0132 C.ar    
   6 C6             0.0187    -2.0690    -1.2101 C.ar    
   7 C7            -0.0057    -0.6878    -1.1997 C.ar    
   8 O8             0.0585    -4.1290    -0.0207 O.3     
   9 C9             0.0551    -4.7709    -1.2974 C.3     
  10 N10            1.3560     2.0099    -0.0001 N.am    
  11 C11            2.1471     2.3124    -1.2027 C.3     
  12 C12            3.4948     2.8051    -0.6411 C.3     
  13 O13            3.3236     2.7294     0.8038 O.3     
  14 C14            2.0955     2.2792     1.0845 C.2     
  15 O15            1.6905     2.1211     2.2191 O.2     
  16 C16            0.0781    -6.2886    -1.1053 C.3     
  17 C17           -0.0512    -6.9769    -2.4656 C.3     
  18 C18           -0.0282    -8.4946    -2.2735 C.3     
  19 C19            1.2915    -8.9056    -1.6173 C.3     
  20 C20            1.4207    -8.2174    -0.2570 C.3     
  21 C21            1.3977    -6.6997    -0.4491 C.3     
  22 H22           -0.5455     1.8639    -0.8728 H       
  23 H23           -0.5286     1.8543     0.9071 H       
  24 H24            0.0248    -0.1643     2.1337 H       
  25 H25            0.0582    -2.6255     2.1244 H       
  26 H26            0.0171    -2.6025    -2.1491 H       
  27 H27           -0.0220    -0.1414    -2.1312 H       
  28 H28           -0.8443    -4.4875    -1.8442 H       
  29 H29            0.9354    -4.4626    -1.8614 H       
  30 H30            2.2883     1.4143    -1.8041 H       
  31 H31            1.6675     3.0958    -1.7895 H       
  32 H32            4.3053     2.1520    -0.9646 H       
  33 H33            3.6846     3.8330    -0.9500 H       
  34 H34           -0.7535    -6.5867    -0.4668 H       
  35 H35           -0.9913    -6.6840    -2.9331 H       
  36 H36            0.7804    -6.6788    -3.1041 H       
  37 H37           -0.8598    -8.7927    -1.6350 H       
  38 H38           -0.1203    -8.9849    -3.2426 H       
  39 H39            1.3079    -9.9869    -1.4805 H       
  40 H40            2.1231    -8.6076    -2.2558 H       
  41 H41            0.5891    -8.5154     0.3815 H       
  42 H42            2.3609    -8.5102     0.2104 H       
  43 H43            2.2293    -6.4016    -1.0876 H       
  44 H44            1.4898    -6.2093     0.5200 H       
@<TRIPOS>BOND
   1    1    2 1
   2    1   10 1
   3    1   22 1
   4    1   23 1
   5    2    3 ar
   6    2    7 ar
   7    3    4 ar
   8    3   24 1
   9    4    5 ar
  10    4   25 1
  11    5    6 ar
  12    5    8 1
  13    6    7 ar
  14    6   26 1
  15    7   27 1
  16    8    9 1
  17    9   16 1
  18    9   28 1
  19    9   29 1
  20   10   11 1
  21   10   14 am
  22   11   12 1
  23   11   30 1
  24   11   31 1
  25   12   13 1
  26   12   32 1
  27   12   33 1
  28   13   14 1
  29   14   15 2
  30   16   17 1
  31   16   21 1
  32   16   34 1
  33   17   18 1
  34   17   35 1
  35   17   36 1
  36   18   19 1
  37   18   37 1
  38   18   38 1
  39   19   20 1
  40   19   39 1
  41   19   40 1
  42   20   21 1
  43   20   41 1
  44   20   42 1
  45   21   43 1
  46   21   44 1

#	End of record

