#	Name: ASD01816499
#	Creating user name:	WinNT
#	Creation time:	15. 06. 2019 19:35

#	Modifying user name:	WinNT
#	Modification time:	15. 06. 2019 19:35

#	Program:	/corina/corina34_cracker 3.40 0067  02.08.2006

@<TRIPOS>MOLECULE
ASD01816499
  70   75    0    0    0
SMALL
NO_CHARGES


@<TRIPOS>ATOM
   1 C1            -0.0508     1.4797    -0.1005 C.ar    
   2 C2            -0.0517     0.0945    -0.1267 C.ar    
   3 C3             1.1348    -0.6093    -0.1376 C.ar    
   4 C4             2.3477     0.0702    -0.1223 C.ar    
   5 C5             2.3452     1.4748    -0.0958 C.ar    
   6 C6             1.1422     2.1730    -0.0850 C.ar    
   7 N7             3.5418    -0.6300    -0.1327 N.pl3   
   8 C8             4.7422    -0.0285    -0.1185 C.2     
   9 C9             4.8646     1.3385    -0.0923 C.2     
  10 C10            3.6433     2.1757    -0.0799 C.2     
  11 C11            5.9753     2.2852    -0.0721 C.2     
  12 N12            5.4202     3.5162    -0.0508 N.am    
  13 N13            4.0264     3.4200    -0.0561 N.2     
  14 C14            6.1393     4.7180    -0.0262 C.ar    
  15 O15            7.1660     2.0182    -0.0741 O.2     
  16 C16            3.4936    -2.0939    -0.1600 C.3     
  17 C17            3.4802    -2.5695    -1.5899 C.ar    
  18 C18            4.6717    -2.8267    -2.2427 C.ar    
  19 C19            4.6627    -3.2623    -3.5534 C.ar    
  20 C20            3.4556    -3.4422    -4.2153 C.ar    
  21 C21            2.2608    -3.1836    -3.5571 C.ar    
  22 C22            2.2762    -2.7532    -2.2447 C.ar    
  23 N23            3.4431    -3.8837    -5.5458 N.pl3   
  24 C24            2.3434    -4.0988    -6.3027 C.2     
  25 C25            2.7576    -4.5172    -7.5211 C.2     
  26 C26            4.1561    -4.5596    -7.5096 C.2     
  27 N27            4.5680    -4.1745    -6.3285 N.2     
  28 C28            7.0901     4.9799    -1.0016 C.ar    
  29 C29            7.7985     6.1664    -0.9752 C.ar    
  30 C30            7.5627     7.0953     0.0216 C.ar    
  31 C31            6.6174     6.8427     0.9981 C.ar    
  32 C32            5.8974     5.6577     0.9761 C.ar    
  33 N33            4.9394     5.3996     1.9642 N.am    
  34 C34            4.3408     6.4225     2.6059 C.2     
  35 O35            4.6836     7.5639     2.3800 O.2     
  36 C36            3.2456     6.1482     3.6040 C.3     
  37 C37            2.7404     7.4712     4.1833 C.3     
  38 C38            1.7176     7.1879     5.2854 C.3     
  39 C39            1.2124     8.5108     5.8646 C.3     
  40 C40            2.0920     5.4223     2.9088 C.3     
  41 H41           -0.9867     2.0187    -0.0966 H       
  42 H42           -0.9903    -0.4396    -0.1383 H       
  43 H43            1.1214    -1.6890    -0.1578 H       
  44 H44            1.1419     3.2528    -0.0649 H       
  45 H45            5.6349    -0.6363    -0.1274 H       
  46 H46            4.3700    -2.4959     0.3484 H       
  47 H47            2.5910    -2.4372     0.3455 H       
  48 H48            5.6104    -2.6866    -1.7273 H       
  49 H49            5.5936    -3.4623    -4.0630 H       
  50 H50            1.3203    -3.3223    -4.0695 H       
  51 H51            1.3471    -2.5518    -1.7322 H       
  52 H52            1.3186    -3.9618    -5.9907 H       
  53 H53            2.1211    -4.7732    -8.3552 H       
  54 H54            4.7872    -4.8550    -8.3347 H       
  55 H55            7.2772     4.2565    -1.7815 H       
  56 H56            8.5387     6.3685    -1.7353 H       
  57 H57            8.1191     8.0208     0.0375 H       
  58 H58            6.4364     7.5702     1.7755 H       
  59 H59            4.7066     4.4847     2.1868 H       
  60 H60            3.6351     5.5245     4.4086 H       
  61 H61            3.5789     8.0289     4.6004 H       
  62 H62            2.2707     8.0577     3.3937 H       
  63 H63            0.8791     6.6301     4.8682 H       
  64 H64            2.1873     6.6013     6.0749 H       
  65 H65            2.0509     9.0685     6.2817 H       
  66 H66            0.7427     9.0974     5.0751 H       
  67 H67            0.4838     8.3090     6.6497 H       
  68 H68            2.4519     4.4799     2.4961 H       
  69 H69            1.2999     5.2239     3.6307 H       
  70 H70            1.7025     6.0461     2.1042 H       
@<TRIPOS>BOND
   1    1    2 ar
   2    1    6 ar
   3    1   41 1
   4    2    3 ar
   5    2   42 1
   6    3    4 ar
   7    3   43 1
   8    4    5 ar
   9    4    7 1
  10    5    6 ar
  11    5   10 1
  12    6   44 1
  13    7    8 1
  14    7   16 1
  15    8    9 2
  16    8   45 1
  17    9   10 1
  18    9   11 1
  19   10   13 2
  20   11   12 am
  21   11   15 2
  22   12   13 1
  23   12   14 1
  24   14   28 ar
  25   14   32 ar
  26   16   17 1
  27   16   46 1
  28   16   47 1
  29   17   18 ar
  30   17   22 ar
  31   18   19 ar
  32   18   48 1
  33   19   20 ar
  34   19   49 1
  35   20   21 ar
  36   20   23 1
  37   21   22 ar
  38   21   50 1
  39   22   51 1
  40   23   24 1
  41   23   27 1
  42   24   25 2
  43   24   52 1
  44   25   26 1
  45   25   53 1
  46   26   27 2
  47   26   54 1
  48   28   29 ar
  49   28   55 1
  50   29   30 ar
  51   29   56 1
  52   30   31 ar
  53   30   57 1
  54   31   32 ar
  55   31   58 1
  56   32   33 1
  57   33   34 am
  58   33   59 1
  59   34   35 2
  60   34   36 1
  61   36   37 1
  62   36   40 1
  63   36   60 1
  64   37   38 1
  65   37   61 1
  66   37   62 1
  67   38   39 1
  68   38   63 1
  69   38   64 1
  70   39   65 1
  71   39   66 1
  72   39   67 1
  73   40   68 1
  74   40   69 1
  75   40   70 1

#	End of record

