#	Name: ASD01914919
#	Creating user name:	WinNT
#	Creation time:	15. 06. 2019 20:04

#	Modifying user name:	WinNT
#	Modification time:	15. 06. 2019 20:04

#	Program:	/corina/corina34_cracker 3.40 0067  02.08.2006

@<TRIPOS>MOLECULE
ASD01914919
  57   61    0    0    0
SMALL
NO_CHARGES


@<TRIPOS>ATOM
   1 C1            -0.0033     1.3311    -0.0213 C.2     
   2 N2             0.0139     0.0590     0.3179 N.2     
   3 C3             1.3082     1.7201    -0.3419 C.2     
   4 C4             2.1160     0.6325    -0.1825 C.2     
   5 N5             1.3318    -0.4058     0.2258 N.pl3   
   6 C6            -1.2036     2.2032    -0.0640 C.ar    
   7 C7            -2.4535     1.6893     0.2745 C.ar    
   8 C8            -3.5664     2.5047     0.2331 C.ar    
   9 C9            -3.4424     3.8297    -0.1440 C.ar    
  10 C10           -2.2039     4.3451    -0.4810 C.ar    
  11 C11           -1.0835     3.5401    -0.4371 C.ar    
  12 C12            3.5775     0.5875    -0.4111 C.ar    
  13 C13            4.1837     1.5200    -1.2531 C.ar    
  14 C14            5.5467     1.4728    -1.4622 C.ar    
  15 C15            6.3119     0.5033    -0.8388 C.ar    
  16 C16            5.7166    -0.4245    -0.0030 C.ar    
  17 C17            4.3553    -0.3840     0.2191 C.ar    
  18 C18            1.7878    -1.7672     0.5172 C.3     
  19 C19            2.0658    -1.8989     1.9925 C.2     
  20 N20            2.4992    -3.0722     2.4945 N.am    
  21 O21            1.8995    -0.9490     2.7281 O.2     
  22 C22            2.7800    -3.2340     3.9311 C.3     
  23 C23            1.8423    -4.3096     4.4827 C.3     
  24 N24            1.8247    -5.4762     3.6109 N.am    
  25 C25            2.1675    -5.4634     2.3220 C.2     
  26 C26            2.7051    -4.2445     1.6310 C.3     
  27 C27            1.4189    -6.6968     4.1647 C.ar    
  28 C28            2.3565    -7.5464     4.7413 C.ar    
  29 C29            0.0790    -7.0588     4.1444 C.ar    
  30 C30           -0.3185    -8.2632     4.6918 C.ar    
  31 C31            0.6162    -9.1089     5.2605 C.ar    
  32 C32            1.9514    -8.7508     5.2875 C.ar    
  33 O33            2.0357    -6.4829     1.6782 O.2     
  34 F34            3.6611    -7.1963     4.7676 F       
  35 H35            1.6208     2.7042    -0.6583 H       
  36 H36           -2.5515     0.6547     0.5683 H       
  37 H37           -4.5358     2.1073     0.4952 H       
  38 H38           -4.3159     4.4641    -0.1757 H       
  39 H39           -2.1126     5.3803    -0.7747 H       
  40 H40           -0.1168     3.9436    -0.7001 H       
  41 H41            3.5873     2.2770    -1.7406 H       
  42 H42            6.0172     2.1939    -2.1141 H       
  43 H43            7.3784     0.4705    -1.0057 H       
  44 H44            6.3192    -1.1793     0.4802 H       
  45 H45            3.8918    -1.1086     0.8720 H       
  46 H46            1.0145    -2.4790     0.2283 H       
  47 H47            2.6992    -1.9732    -0.0440 H       
  48 H48            3.8161    -3.5425     4.0708 H       
  49 H49            2.6033    -2.2912     4.4488 H       
  50 H50            2.1825    -4.6079     5.4744 H       
  51 H51            0.8340    -3.9024     4.5576 H       
  52 H52            2.1826    -4.1008     0.6852 H       
  53 H53            3.7717    -4.3707     1.4453 H       
  54 H54           -0.6523    -6.3991     3.7012 H       
  55 H55           -1.3611    -8.5447     4.6759 H       
  56 H56            0.3020   -10.0496     5.6879 H       
  57 H57            2.6790    -9.4136     5.7321 H       
@<TRIPOS>BOND
   1    1    2 2
   2    1    3 1
   3    1    6 1
   4    2    5 1
   5    3    4 2
   6    3   35 1
   7    4    5 1
   8    4   12 1
   9    5   18 1
  10    6    7 ar
  11    6   11 ar
  12    7    8 ar
  13    7   36 1
  14    8    9 ar
  15    8   37 1
  16    9   10 ar
  17    9   38 1
  18   10   11 ar
  19   10   39 1
  20   11   40 1
  21   12   13 ar
  22   12   17 ar
  23   13   14 ar
  24   13   41 1
  25   14   15 ar
  26   14   42 1
  27   15   16 ar
  28   15   43 1
  29   16   17 ar
  30   16   44 1
  31   17   45 1
  32   18   19 1
  33   18   46 1
  34   18   47 1
  35   19   20 am
  36   19   21 2
  37   20   22 1
  38   20   26 1
  39   22   23 1
  40   22   48 1
  41   22   49 1
  42   23   24 1
  43   23   50 1
  44   23   51 1
  45   24   25 am
  46   24   27 1
  47   25   26 1
  48   25   33 2
  49   26   52 1
  50   26   53 1
  51   27   28 ar
  52   27   29 ar
  53   28   34 1
  54   28   32 ar
  55   29   30 ar
  56   29   54 1
  57   30   31 ar
  58   30   55 1
  59   31   32 ar
  60   31   56 1
  61   32   57 1

#	End of record

