#	Name: ASD01208909
#	Creating user name:	WinNT
#	Creation time:	15. 06. 2019 19:10

#	Modifying user name:	WinNT
#	Modification time:	15. 06. 2019 19:10

#	Program:	/corina/corina34_cracker 3.40 0067  02.08.2006

@<TRIPOS>MOLECULE
ASD01208909
  73   77    0    0    0
SMALL
NO_CHARGES


@<TRIPOS>ATOM
   1 C1            -0.3176     1.7817     1.0032 C.2     
   2 C2            -0.2273     0.4174     0.4412 C.ar    
   3 C3             1.0160    -0.2009     0.3011 C.ar    
   4 C4             1.0961    -1.4791    -0.2259 C.ar    
   5 C5            -0.0574    -2.1449    -0.6148 C.ar    
   6 C6            -1.2956    -1.5341    -0.4772 C.ar    
   7 C7            -1.3853    -0.2579     0.0548 C.ar    
   8 O8             0.6921     2.3667     1.3440 O.2     
   9 N9            -1.5187     2.3791     1.1326 N.am    
  10 S10           -0.2704     4.5944     2.1846 S.3     
  11 C11           -1.6035     3.6610     1.6606 C.2     
  12 N12           -2.7050     4.3241     1.8274 N.2     
  13 C13           -2.6014     5.5343     2.3439 C.2     
  14 C14           -1.3532     5.9118     2.6269 C.2     
  15 C15           -3.7962     6.4182     2.5937 C.3     
  16 C16           -4.5905     6.5808     1.2962 C.3     
  17 O17           -7.9841     9.0090     1.7101 O.3     
  18 C18           -6.7469     9.7217     1.6376 C.3     
  19 C19           -5.6208     8.7618     1.3716 C.2     
  20 N20           -5.7519     7.4401     1.5391 N.am    
  21 C21           -7.0085     6.8214     1.9543 C.3     
  22 C22           -7.9255     7.8737     2.5816 C.3     
  23 O23           -4.5558     9.2004     0.9917 O.2     
  24 O24           -2.4222    -2.1904    -0.8600 O.3     
  25 C25           -2.9902    -1.8448    -2.0444 C.ar    
  26 C26           -4.1622    -2.4654    -2.4579 C.ar    
  27 C27           -4.7415    -2.1175    -3.6589 C.ar    
  28 C28           -4.1491    -1.1395    -4.4603 C.ar    
  29 C29           -2.9714    -0.5176    -4.0410 C.ar    
  30 C30           -2.4007    -0.8676    -2.8364 C.ar    
  31 O31           -4.3062     0.1582    -6.6181 O.3     
  32 C32           -4.7668    -0.7638    -5.7491 C.2     
  33 N33           -5.8664    -1.2657    -6.2612 N.2     
  34 N34           -6.1027    -0.7021    -7.3935 N.2     
  35 C35           -5.1716     0.1742    -7.6470 C.2     
  36 C36           -5.0815     1.0475    -8.8718 C.3     
  37 O37            2.3064    -2.0820    -0.3628 O.3     
  38 C38            3.5904    -4.1294    -0.3674 C.3     
  39 C39            2.3094    -3.4324    -0.8301 C.3     
  40 C40            2.2466    -3.4431    -2.3588 C.3     
  41 O41            4.7196    -3.5119    -0.9884 O.3     
  42 C42            5.9734    -4.0910    -0.6217 C.3     
  43 H43            1.9145     0.3169     0.6028 H       
  44 H44            0.0087    -3.1413    -1.0260 H       
  45 H45           -2.3498     0.2152     0.1657 H       
  46 H46           -2.3240     1.9139     0.8569 H       
  47 H47           -1.0583     6.8595     3.0528 H       
  48 H48           -4.4314     5.9640     3.3542 H       
  49 H49           -3.4591     7.3958     2.9384 H       
  50 H50           -3.9552     7.0350     0.5358 H       
  51 H51           -4.9275     5.6032     0.9516 H       
  52 H52           -6.7971    10.4537     0.8315 H       
  53 H53           -6.5692    10.2359     2.5821 H       
  54 H54           -7.5008     6.3837     1.0859 H       
  55 H55           -6.8028     6.0389     2.6847 H       
  56 H56           -7.5264     8.1761     3.5498 H       
  57 H57           -8.9252     7.4584     2.7090 H       
  58 H58           -4.6198    -3.2218    -1.8375 H       
  59 H59           -5.6523    -2.6009    -3.9801 H       
  60 H60           -2.5100     0.2390    -4.6583 H       
  61 H61           -1.4918    -0.3844    -2.5096 H       
  62 H62           -4.5075     0.5337    -9.6429 H       
  63 H63           -6.0846     1.2561    -9.2439 H       
  64 H64           -4.5872     1.9843    -8.6146 H       
  65 H65            3.6795    -4.0441     0.7156 H       
  66 H66            3.5525    -5.1822    -0.6471 H       
  67 H67            1.4437    -3.9582    -0.4272 H       
  68 H68            3.1122    -2.9173    -2.7617 H       
  69 H69            2.2488    -4.4732    -2.7153 H       
  70 H70            1.3339    -2.9465    -2.6885 H       
  71 H71            6.1121    -4.0049     0.4560 H       
  72 H72            5.9850    -5.1431    -0.9066 H       
  73 H73            6.7797    -3.5668    -1.1347 H       
@<TRIPOS>BOND
   1    1    2 1
   2    1    8 2
   3    1    9 am
   4    2    3 ar
   5    2    7 ar
   6    3    4 ar
   7    3   43 1
   8    4    5 ar
   9    4   37 1
  10    5    6 ar
  11    5   44 1
  12    6    7 ar
  13    6   24 1
  14    7   45 1
  15    9   11 1
  16    9   46 1
  17   10   11 1
  18   10   14 1
  19   11   12 2
  20   12   13 1
  21   13   14 2
  22   13   15 1
  23   14   47 1
  24   15   16 1
  25   15   48 1
  26   15   49 1
  27   16   20 1
  28   16   50 1
  29   16   51 1
  30   17   18 1
  31   17   22 1
  32   18   19 1
  33   18   52 1
  34   18   53 1
  35   19   20 am
  36   19   23 2
  37   20   21 1
  38   21   22 1
  39   21   54 1
  40   21   55 1
  41   22   56 1
  42   22   57 1
  43   24   25 1
  44   25   26 ar
  45   25   30 ar
  46   26   27 ar
  47   26   58 1
  48   27   28 ar
  49   27   59 1
  50   28   29 ar
  51   28   32 1
  52   29   30 ar
  53   29   60 1
  54   30   61 1
  55   31   32 1
  56   31   35 1
  57   32   33 2
  58   33   34 1
  59   34   35 2
  60   35   36 1
  61   36   62 1
  62   36   63 1
  63   36   64 1
  64   37   39 1
  65   38   39 1
  66   38   41 1
  67   38   65 1
  68   38   66 1
  69   39   40 1
  70   39   67 1
  71   40   68 1
  72   40   69 1
  73   40   70 1
  74   41   42 1
  75   42   71 1
  76   42   72 1
  77   42   73 1

#	End of record

