#	Name: ASD00840496
#	Creating user name:	WinNT
#	Creation time:	15. 06. 2019 18:39

#	Modifying user name:	WinNT
#	Modification time:	15. 06. 2019 18:39

#	Program:	/corina/corina34_cracker 3.40 0067  02.08.2006

@<TRIPOS>MOLECULE
ASD00840496
  94   99    0    0    0
SMALL
NO_CHARGES


@<TRIPOS>ATOM
   1 F1            -0.1191    -3.1640     4.7114 F       
   2 N2            -0.0143     1.3152     0.0260 N.ar    
   3 C3             0.0027    -0.0071     0.0114 C.ar    
   4 C4             1.2071    -0.6994    -0.0063 C.ar    
   5 C5             2.3932     0.0133    -0.0087 C.ar    
   6 C6             2.3324     1.4001     0.0070 C.ar    
   7 C7             1.1001     2.0220     0.0242 C.ar    
   8 C8             1.2215    -2.2062    -0.0224 C.3     
   9 C9             0.4763    -2.7309    -1.2311 C.2     
  10 N10            2.5989    -2.7051    -0.0123 N.am    
  11 C11            3.4466    -2.3635    -1.0029 C.2     
  12 N12            4.7401    -2.7371    -0.9417 N.am    
  13 O13            3.0444    -1.7183    -1.9518 O.2     
  14 C14            5.2677    -3.4158     0.2497 C.3     
  15 C15            6.4985    -2.6518     0.7480 C.3     
  16 C16            7.5064    -2.5150    -0.3954 C.3     
  17 C17            6.8758    -1.7203    -1.5413 C.3     
  18 C18            5.6479    -2.4788    -2.0677 C.3     
  19 C19            8.7519    -1.7826     0.1079 C.3     
  20 C20            9.3850    -2.5774     1.2533 C.3     
  21 C21           10.6633    -1.8719     1.7117 C.3     
  22 N22           11.5998    -1.7722     0.5850 N.3     
  23 C23           11.0320    -0.9732    -0.5084 C.3     
  24 C24            9.7647    -1.6518    -1.0330 C.3     
  25 C25           12.8916    -1.2251     1.0210 C.3     
  26 O26            0.7575    -2.5302    -2.3938 O.2     
  27 N27           -0.5549    -3.4610    -0.7741 N.am    
  28 C28            0.4478    -2.7557     1.1540 C.ar    
  29 C29           -0.6003    -3.4958     0.6212 C.ar    
  30 C30            0.6115    -2.6426     2.5164 C.ar    
  31 C31           -0.2763    -3.2720     3.3740 C.ar    
  32 C32           -1.3264    -4.0137     2.8543 C.ar    
  33 C33           -1.4904    -4.1269     1.4871 C.ar    
  34 F34           -2.1932    -4.6283     3.6887 F       
  35 C35           -1.0194    -5.8475    -2.0638 C.ar    
  36 C36            0.1590    -6.0082    -2.7783 C.ar    
  37 C37           -1.6986    -6.9543    -1.5908 C.ar    
  38 C38           -1.2060    -8.2231    -1.8277 C.ar    
  39 C39           -0.0276    -8.3892    -2.5420 C.ar    
  40 C40            0.6552    -7.2807    -3.0177 C.ar    
  41 O41            0.4562    -9.6375    -2.7750 O.3     
  42 O42            0.8262    -4.9195    -3.2434 O.3     
  43 C43           -0.2994   -10.7336    -2.2557 C.3     
  44 C44            2.0324    -5.1597    -3.9709 C.3     
  45 C45            2.6373    -3.8249    -4.4105 C.3     
  46 S46           -1.6468    -4.2306    -1.7528 S.o2    
  47 O47           -2.8278    -4.4000    -0.9810 O.2     
  48 O48           -1.6232    -3.5449    -2.9972 O.2     
  49 O49           -1.1672    -0.6942     0.0144 O.3     
  50 C50           -3.5777    -0.8659     0.0339 C.3     
  51 C51           -2.3713     0.0751     0.0335 C.3     
  52 H52            3.3446    -0.4978    -0.0220 H       
  53 H53            3.2396     1.9862     0.0060 H       
  54 H54            1.0473     3.1006     0.0360 H       
  55 H55            2.9009    -3.2812     0.7072 H       
  56 H56            4.5061    -3.4301     1.0294 H       
  57 H57            5.5504    -4.4369    -0.0065 H       
  58 H58            6.1982    -1.6610     1.0889 H       
  59 H59            6.9561    -3.1977     1.5730 H       
  60 H60            7.7875    -3.5058    -0.7523 H       
  61 H61            6.5720    -0.7382    -1.1788 H       
  62 H62            7.6020    -1.6031    -2.3456 H       
  63 H63            5.9643    -3.4221    -2.5128 H       
  64 H64            5.1371    -1.8726    -2.8158 H       
  65 H65            8.4724    -0.7909     0.4636 H       
  66 H66            8.6839    -2.6373     2.0857 H       
  67 H67            9.6278    -3.5824     0.9082 H       
  68 H68           10.4179    -0.8719     2.0695 H       
  69 H69           11.1243    -2.4429     2.5177 H       
  70 H70           10.7849     0.0226    -0.1401 H       
  71 H71           11.7607    -0.8914    -1.3149 H       
  72 H72           10.0134    -2.6423    -1.4141 H       
  73 H73            9.3348    -1.0505    -1.8341 H       
  74 H74           13.3251    -1.8773     1.7791 H       
  75 H75           13.5662    -1.1620     0.1672 H       
  76 H76           12.7419    -0.2301     1.4401 H       
  77 H77            1.4312    -2.0641     2.9162 H       
  78 H78           -2.3106    -4.7058     1.0889 H       
  79 H79           -2.6157    -6.8272    -1.0349 H       
  80 H80           -1.7381    -9.0865    -1.4565 H       
  81 H81            1.5721    -7.4078    -3.5740 H       
  82 H82            0.1959   -11.6702    -2.5118 H       
  83 H83           -0.3705   -10.6447    -1.1717 H       
  84 H84           -1.3002   -10.7220    -2.6876 H       
  85 H85            2.7419    -5.6878    -3.3339 H       
  86 H86            1.8122    -5.7658    -4.8497 H       
  87 H87            3.5574    -4.0081    -4.9654 H       
  88 H88            1.9278    -3.2967    -5.0476 H       
  89 H89            2.8576    -3.2188    -3.5317 H       
  90 H90           -4.4962    -0.2791     0.0485 H       
  91 H91           -3.5562    -1.4848    -0.8631 H       
  92 H92           -3.5403    -1.5041     0.9167 H       
  93 H93           -2.3929     0.6940     0.9305 H       
  94 H94           -2.4087     0.7134    -0.8493 H       
@<TRIPOS>BOND
   1    1   31 1
   2    2    3 ar
   3    2    7 ar
   4    3    4 ar
   5    3   49 1
   6    4    5 ar
   7    4    8 1
   8    5    6 ar
   9    5   52 1
  10    6    7 ar
  11    6   53 1
  12    7   54 1
  13    8    9 1
  14    8   10 1
  15    8   28 1
  16    9   26 2
  17    9   27 am
  18   10   11 am
  19   10   55 1
  20   11   12 am
  21   11   13 2
  22   12   14 1
  23   12   18 1
  24   14   15 1
  25   14   56 1
  26   14   57 1
  27   15   16 1
  28   15   58 1
  29   15   59 1
  30   16   17 1
  31   16   19 1
  32   16   60 1
  33   17   18 1
  34   17   61 1
  35   17   62 1
  36   18   63 1
  37   18   64 1
  38   19   20 1
  39   19   24 1
  40   19   65 1
  41   20   21 1
  42   20   66 1
  43   20   67 1
  44   21   22 1
  45   21   68 1
  46   21   69 1
  47   22   23 1
  48   22   25 1
  49   23   24 1
  50   23   70 1
  51   23   71 1
  52   24   72 1
  53   24   73 1
  54   25   74 1
  55   25   75 1
  56   25   76 1
  57   27   46 am
  58   27   29 1
  59   28   29 ar
  60   28   30 ar
  61   29   33 ar
  62   30   31 ar
  63   30   77 1
  64   31   32 ar
  65   32   33 ar
  66   32   34 1
  67   33   78 1
  68   35   36 ar
  69   35   37 ar
  70   35   46 1
  71   36   42 1
  72   36   40 ar
  73   37   38 ar
  74   37   79 1
  75   38   39 ar
  76   38   80 1
  77   39   40 ar
  78   39   41 1
  79   40   81 1
  80   41   43 1
  81   42   44 1
  82   43   82 1
  83   43   83 1
  84   43   84 1
  85   44   45 1
  86   44   85 1
  87   44   86 1
  88   45   87 1
  89   45   88 1
  90   45   89 1
  91   46   47 2
  92   46   48 2
  93   49   51 1
  94   50   51 1
  95   50   90 1
  96   50   91 1
  97   50   92 1
  98   51   93 1
  99   51   94 1

#	End of record

