#	Name: ASD01120334
#	Creating user name:	WinNT
#	Creation time:	15. 06. 2019 18:59

#	Modifying user name:	WinNT
#	Modification time:	15. 06. 2019 18:59

#	Program:	/corina/corina34_cracker 3.40 0067  02.08.2006

@<TRIPOS>MOLECULE
ASD01120334
  33   34    0    0    0
SMALL
NO_CHARGES


@<TRIPOS>ATOM
   1 C1            -0.0187     1.5258     0.0104 C.3     
   2 C2             0.0021    -0.0041     0.0020 C.3     
   3 C3            -1.4333    -0.5336     0.0129 C.3     
   4 C4            -2.1001    -0.1511     1.3091 C.ar    
   5 C5            -2.1154    -1.0271     2.3549 C.ar    
   6 C6            -2.7274    -0.6861     3.5548 C.ar    
   7 C7            -3.3299     0.5418     3.7112 C.ar    
   8 C8            -3.3272     1.4533     2.6587 C.ar    
   9 C9            -2.7010     1.1074     1.4452 C.ar    
  10 C10           -2.8538     2.2111     0.5722 C.2     
  11 C11           -3.5430     3.1743     1.2395 C.2     
  12 N12           -3.8322     2.7235     2.5135 N.pl3   
  13 C13           -3.9162     4.4866     0.6952 C.2     
  14 O14           -3.6059     4.7835    -0.4421 O.2     
  15 O15           -4.6031     5.3620     1.4570 O.3     
  16 N16           -3.9792     0.8919     4.9946 N.pl3   
  17 O17           -3.9809     0.0930     5.9140 O.2     
  18 O18           -4.5117     1.9787     5.1311 O.2     
  19 C19            0.7182    -0.4975    -1.2568 C.3     
  20 H20            1.0039     1.9031     0.0027 H       
  21 H21           -0.5459     1.8868    -0.8726 H       
  22 H22           -0.5289     1.8773     0.9072 H       
  23 H23            0.5293    -0.3651     0.8851 H       
  24 H24           -1.9862    -0.1019    -0.8214 H       
  25 H25           -1.4207    -1.6194    -0.0826 H       
  26 H26           -1.6477    -1.9948     2.2490 H       
  27 H27           -2.7308    -1.3914     4.3726 H       
  28 H28           -2.4884     2.2763    -0.4421 H       
  29 H29           -4.3168     3.2197     3.1917 H       
  30 H30           -4.8261     6.2129     1.0553 H       
  31 H31            1.7408    -0.1202    -1.2645 H       
  32 H32            0.7330    -1.5874    -1.2628 H       
  33 H33            0.1910    -0.1364    -2.1398 H       
@<TRIPOS>BOND
   1    1    2 1
   2    1   20 1
   3    1   21 1
   4    1   22 1
   5    2    3 1
   6    2   19 1
   7    2   23 1
   8    3    4 1
   9    3   24 1
  10    3   25 1
  11    4    5 ar
  12    4    9 ar
  13    5    6 ar
  14    5   26 1
  15    6    7 ar
  16    6   27 1
  17    7    8 ar
  18    7   16 1
  19    8    9 ar
  20    8   12 1
  21    9   10 1
  22   10   11 2
  23   10   28 1
  24   11   12 1
  25   11   13 1
  26   12   29 1
  27   13   14 2
  28   13   15 1
  29   15   30 1
  30   16   17 2
  31   16   18 2
  32   19   31 1
  33   19   32 1
  34   19   33 1

#	End of record

