#	Name: ASD03092661
#	Creating user name:	WinNT
#	Creation time:	15. 06. 2019 20:32

#	Modifying user name:	WinNT
#	Modification time:	15. 06. 2019 20:32

#	Program:	/corina/corina34_cracker 3.40 0067  02.08.2006

@<TRIPOS>MOLECULE
ASD03092661
  60   64    0    0    0
SMALL
NO_CHARGES


@<TRIPOS>ATOM
   1 C1             1.1017     1.6317    -0.8823 C.ar    
   2 C2             1.0207     0.2342    -1.0555 C.ar    
   3 C3             1.7625    -0.6096    -0.1969 C.ar    
   4 C4             2.5440    -0.0133     0.7870 C.ar    
   5 C5             2.5674     1.3804     0.8899 C.ar    
   6 N6             1.8626     2.1443     0.0715 N.ar    
   7 N7            -0.2843     1.1469    -2.5816 N.2     
   8 N8             0.2854     2.1869    -1.8377 N.pl3   
   9 C9             0.1440    -0.0004    -2.1354 C.2     
  10 C10            1.7086    -2.0800    -0.3403 C.2     
  11 O11            0.6656    -2.6228    -0.6486 O.2     
  12 N12            2.8160    -2.8186    -0.1291 N.am    
  13 C13            3.6049    -4.9269    -1.0178 C.ar    
  14 C14            2.7475    -4.2142    -0.1892 C.ar    
  15 C15            1.8192    -4.9100     0.5813 C.ar    
  16 C16            1.7902    -6.2919     0.4877 C.ar    
  17 C17            2.6761    -6.9301    -0.3600 C.ar    
  18 N18            3.5436    -6.2421    -1.0767 N.ar    
  19 C19            0.8700    -4.1778     1.4945 C.3     
  20 C20            4.6110    -4.1885    -1.8626 C.3     
  21 C21            3.4005     2.0165     1.9389 C.ar    
  22 C22            3.4368     3.4049     2.0572 C.ar    
  23 C23            4.2140     3.9913     3.0352 C.ar    
  24 C24            4.9561     3.2041     3.8972 C.ar    
  25 C25            4.9240     1.8257     3.7845 C.ar    
  26 C26            4.1459     1.2280     2.8140 C.ar    
  27 C27           -0.2412    -1.3531    -2.6767 C.3     
  28 C28            0.0615     3.5568    -2.0333 C.ar    
  29 C29           -0.1274     4.0535    -3.3162 C.ar    
  30 C30           -0.3484     5.4028    -3.5082 C.ar    
  31 C31           -0.3813     6.2624    -2.4196 C.ar    
  32 C32           -0.1926     5.7667    -1.1376 C.ar    
  33 C33            0.0227     4.4168    -0.9437 C.ar    
  34 O34           -0.5980     7.5910    -2.6094 O.3     
  35 C35           -0.6191     8.4178    -1.4440 C.3     
  36 H36            3.1261    -0.6205     1.4644 H       
  37 H37            3.6604    -2.3824     0.0646 H       
  38 H38            1.0837    -6.8641     1.0708 H       
  39 H39            2.6579    -8.0072    -0.4364 H       
  40 H40           -0.0883    -4.0458     0.9921 H       
  41 H41            0.7252    -4.7560     2.4071 H       
  42 H42            1.2865    -3.2021     1.7447 H       
  43 H43            5.5654    -4.1470    -1.3377 H       
  44 H44            4.7405    -4.7090    -2.8115 H       
  45 H45            4.2547    -3.1755    -2.0495 H       
  46 H46            2.8581     4.0205     1.3845 H       
  47 H47            4.2431     5.0670     3.1276 H       
  48 H48            5.5632     3.6673     4.6609 H       
  49 H49            5.5054     1.2160     4.4603 H       
  50 H50            4.1181     0.1517     2.7298 H       
  51 H51           -1.0604    -1.7614    -2.0848 H       
  52 H52           -0.5579    -1.2523    -3.7147 H       
  53 H53            0.6162    -2.0239    -2.6219 H       
  54 H54           -0.1011     3.3846    -4.1637 H       
  55 H55           -0.4953     5.7893    -4.5059 H       
  56 H56           -0.2183     6.4364    -0.2906 H       
  57 H57            0.1654     4.0305     0.0547 H       
  58 H58           -0.8006     9.4523    -1.7357 H       
  59 H59           -1.4132     8.0840    -0.7761 H       
  60 H60            0.3403     8.3478    -0.9314 H       
@<TRIPOS>BOND
   1    1    2 ar
   2    1    6 ar
   3    1    8 1
   4    2    3 ar
   5    2    9 1
   6    3    4 ar
   7    3   10 1
   8    4    5 ar
   9    4   36 1
  10    5    6 ar
  11    5   21 1
  12    7    8 1
  13    7    9 2
  14    8   28 1
  15    9   27 1
  16   10   11 2
  17   10   12 am
  18   12   14 1
  19   12   37 1
  20   13   14 ar
  21   13   18 ar
  22   13   20 1
  23   14   15 ar
  24   15   16 ar
  25   15   19 1
  26   16   17 ar
  27   16   38 1
  28   17   18 ar
  29   17   39 1
  30   19   40 1
  31   19   41 1
  32   19   42 1
  33   20   43 1
  34   20   44 1
  35   20   45 1
  36   21   22 ar
  37   21   26 ar
  38   22   23 ar
  39   22   46 1
  40   23   24 ar
  41   23   47 1
  42   24   25 ar
  43   24   48 1
  44   25   26 ar
  45   25   49 1
  46   26   50 1
  47   27   51 1
  48   27   52 1
  49   27   53 1
  50   28   29 ar
  51   28   33 ar
  52   29   30 ar
  53   29   54 1
  54   30   31 ar
  55   30   55 1
  56   31   32 ar
  57   31   34 1
  58   32   33 ar
  59   32   56 1
  60   33   57 1
  61   34   35 1
  62   35   58 1
  63   35   59 1
  64   35   60 1

#	End of record

