#	Name: ASD02030330
#	Creating user name:	WinNT
#	Creation time:	15. 06. 2019 20:15

#	Modifying user name:	WinNT
#	Modification time:	15. 06. 2019 20:15

#	Program:	/corina/corina34_cracker 3.40 0067  02.08.2006

@<TRIPOS>MOLECULE
ASD02030330
  39   40    0    0    0
SMALL
NO_CHARGES


@<TRIPOS>ATOM
   1 N1            -0.0179     1.4653     0.0101 N.3     
   2 C2             0.0021    -0.0041     0.0020 C.3     
   3 C3             0.7337    -0.4948    -1.2495 C.3     
   4 N4             2.0995     0.0476    -1.2596 N.3     
   5 C5             2.0796     1.5170    -1.2515 C.3     
   6 C6             1.3479     2.0078    -0.0000 C.3     
   7 C7             0.7279    -0.5116     1.2496 C.3     
   8 C8            -1.4332    -0.5340    -0.0051 C.3     
   9 O9            -1.4134    -1.9628    -0.0129 O.3     
  10 C10           -2.7106    -2.5621    -0.0200 C.3     
  11 C11           -0.7783     1.9752     1.1589 C.3     
  12 C12           -0.5745     3.4638     1.2755 C.ar    
  13 C13           -1.4278     4.3317     0.6201 C.ar    
  14 C14           -1.2408     5.6971     0.7270 C.ar    
  15 C15           -0.2008     6.1947     1.4897 C.ar    
  16 C16            0.6520     5.3269     2.1458 C.ar    
  17 C17            0.4624     3.9615     2.0424 C.ar    
  18 H18            0.7751    -1.5840    -1.2430 H       
  19 H19            0.2013    -0.1561    -2.1383 H       
  20 H20            2.6367    -0.3110    -0.4845 H       
  21 H21            3.1021     1.8946    -1.2465 H       
  22 H22            1.5625     1.8786    -2.1404 H       
  23 H23            1.3066     3.0970    -0.0066 H       
  24 H24            1.8803     1.6690     0.8887 H       
  25 H25            0.2077    -0.1603     2.1407 H       
  26 H26            0.7425    -1.6015     1.2433 H       
  27 H27            1.7506    -0.1345     1.2536 H       
  28 H28           -1.9546    -0.1828     0.8854 H       
  29 H29           -1.9495    -0.1729    -0.8945 H       
  30 H30           -3.2585    -2.2529     0.8702 H       
  31 H31           -3.2534    -2.2431    -0.9098 H       
  32 H32           -2.6095    -3.6474    -0.0257 H       
  33 H33           -1.8380     1.7637     1.0160 H       
  34 H34           -0.4303     1.4884     2.0699 H       
  35 H35           -2.2403     3.9429     0.0242 H       
  36 H36           -1.9070     6.3752     0.2144 H       
  37 H37           -0.0542     7.2615     1.5726 H       
  38 H38            1.4647     5.7156     2.7414 H       
  39 H39            1.1264     3.2835     2.5580 H       
@<TRIPOS>BOND
   1    1    2 1
   2    1    6 1
   3    1   11 1
   4    2    3 1
   5    2    7 1
   6    2    8 1
   7    3    4 1
   8    3   18 1
   9    3   19 1
  10    4    5 1
  11    4   20 1
  12    5    6 1
  13    5   21 1
  14    5   22 1
  15    6   23 1
  16    6   24 1
  17    7   25 1
  18    7   26 1
  19    7   27 1
  20    8    9 1
  21    8   28 1
  22    8   29 1
  23    9   10 1
  24   10   30 1
  25   10   31 1
  26   10   32 1
  27   11   12 1
  28   11   33 1
  29   11   34 1
  30   12   13 ar
  31   12   17 ar
  32   13   14 ar
  33   13   35 1
  34   14   15 ar
  35   14   36 1
  36   15   16 ar
  37   15   37 1
  38   16   17 ar
  39   16   38 1
  40   17   39 1

#	End of record

