#	Name: ASD02030039
#	Creating user name:	WinNT
#	Creation time:	15. 06. 2019 20:14

#	Modifying user name:	WinNT
#	Modification time:	15. 06. 2019 20:14

#	Program:	/corina/corina34_cracker 3.40 0067  02.08.2006

@<TRIPOS>MOLECULE
ASD02030039
  75   78    0    0    0
SMALL
NO_CHARGES


@<TRIPOS>ATOM
   1 C1            -0.0187     1.5254     0.0104 C.3     
   2 C2             0.0021    -0.0041     0.0020 C.3     
   3 C3             0.6585    -0.5178     1.2851 C.3     
   4 C4             1.4183     2.0552    -0.0004 C.3     
   5 C5             2.1641     1.4423     1.1730 C.2     
   6 C6             2.8094     2.2372     1.9753 C.2     
   7 C7             3.5750     1.7482     3.1700 C.3     
   8 C8             4.0229     0.3029     2.9254 C.3     
   9 C9             4.6452    -0.2562     4.1923 C.3     
  10 C10            5.9567     0.4007     4.6368 C.3     
  11 C11            6.6114    -0.6949     5.5217 C.3     
  12 C12            6.0120    -2.0462     5.0588 C.3     
  13 C13            7.1264    -2.9964     4.6157 C.3     
  14 C14            8.0581    -3.2756     5.7967 C.3     
  15 C15            9.2404    -4.1240     5.3242 C.3     
  16 C16           10.1721    -4.4032     6.5052 C.3     
  17 C17           11.2865    -5.3534     6.0621 C.3     
  18 C18           12.1591    -4.6618     5.0127 C.3     
  19 C19           12.1451    -5.7312     7.2708 C.3     
  20 C20            6.5125    -4.3105     4.1287 C.3     
  21 C21            5.1089    -1.7038     3.8780 C.3     
  22 C22            5.9212    -1.7191     2.5815 C.3     
  23 C23            3.8581    -2.5470     3.7179 C.3     
  24 C24            3.1130    -2.0212     2.4811 C.3     
  25 C25            2.7780    -0.5379     2.6102 C.3     
  26 C26            2.1152    -0.0481     1.3335 C.3     
  27 C27            2.8579    -0.6795     0.1542 C.3     
  28 O28           -0.7097     1.9988    -1.1473 O.3     
  29 O29           10.7455    -3.1758     6.9600 O.3     
  30 H30           -0.5288     1.8770     0.9072 H       
  31 H31           -1.0191    -0.3803    -0.0587 H       
  32 H32            0.5688    -0.3544    -0.8607 H       
  33 H33            0.1216    -0.1273     2.1497 H       
  34 H34            0.6270    -1.6072     1.2987 H       
  35 H35            1.9065     1.7733    -0.9333 H       
  36 H36            1.4100     3.1409     0.0966 H       
  37 H37            2.7938     3.2978     1.7723 H       
  38 H38            4.4501     2.3793     3.3250 H       
  39 H39            2.9364     1.7870     4.0525 H       
  40 H40            4.7392     0.2641     2.1047 H       
  41 H41            3.9207    -0.2446     5.0065 H       
  42 H42            6.5854     0.6279     3.7759 H       
  43 H43            5.7593     1.3003     5.2197 H       
  44 H44            7.6919    -0.6960     5.3777 H       
  45 H45            6.3735    -0.5200     6.5710 H       
  46 H46            5.4301    -2.4965     5.8630 H       
  47 H47            7.6938    -2.5382     3.8057 H       
  48 H48            8.4261    -2.3322     6.2001 H       
  49 H49            7.5116    -3.8134     6.5714 H       
  50 H50            8.8723    -5.0674     4.9208 H       
  51 H51            9.7869    -3.5862     4.5494 H       
  52 H52            9.6047    -4.8614     7.3152 H       
  53 H53           10.8469    -6.2538     5.6330 H       
  54 H54           12.5986    -3.7614     5.4419 H       
  55 H55           12.9530    -5.3388     4.6971 H       
  56 H56           11.5474    -4.3927     4.1517 H       
  57 H57           11.5234    -6.2238     8.0184 H       
  58 H58           12.9390    -6.4081     6.9551 H       
  59 H59           12.5846    -4.8308     7.6999 H       
  60 H60            5.8487    -4.1116     3.2873 H       
  61 H61            7.3063    -4.9874     3.8131 H       
  62 H62            5.9450    -4.7686     4.9388 H       
  63 H63            6.7951    -1.0774     2.6927 H       
  64 H64            6.2435    -2.7380     2.3668 H       
  65 H65            5.3035    -1.3530     1.7615 H       
  66 H66            4.1310    -3.5920     3.5707 H       
  67 H67            3.2276    -2.4477     4.6015 H       
  68 H68            3.7380    -2.1689     1.6004 H       
  69 H69            2.1882    -2.5848     2.3573 H       
  70 H70            2.0653    -0.4162     3.4259 H       
  71 H71            2.3924    -0.3637    -0.7794 H       
  72 H72            3.8997    -0.3592     0.1674 H       
  73 H73            2.8106    -1.7655     0.2346 H       
  74 H74           -0.7616     2.9625    -1.2077 H       
  75 H75           11.2658    -2.7124     6.2895 H       
@<TRIPOS>BOND
   1    1    2 1
   2    1    4 1
   3    1   28 1
   4    1   30 1
   5    2    3 1
   6    2   31 1
   7    2   32 1
   8    3   26 1
   9    3   33 1
  10    3   34 1
  11    4    5 1
  12    4   35 1
  13    4   36 1
  14    5    6 2
  15    5   26 1
  16    6    7 1
  17    6   37 1
  18    7    8 1
  19    7   38 1
  20    7   39 1
  21    8    9 1
  22    8   25 1
  23    8   40 1
  24    9   10 1
  25    9   21 1
  26    9   41 1
  27   10   11 1
  28   10   42 1
  29   10   43 1
  30   11   12 1
  31   11   44 1
  32   11   45 1
  33   12   13 1
  34   12   21 1
  35   12   46 1
  36   13   14 1
  37   13   20 1
  38   13   47 1
  39   14   15 1
  40   14   48 1
  41   14   49 1
  42   15   16 1
  43   15   50 1
  44   15   51 1
  45   16   17 1
  46   16   29 1
  47   16   52 1
  48   17   18 1
  49   17   19 1
  50   17   53 1
  51   18   54 1
  52   18   55 1
  53   18   56 1
  54   19   57 1
  55   19   58 1
  56   19   59 1
  57   20   60 1
  58   20   61 1
  59   20   62 1
  60   21   22 1
  61   21   23 1
  62   22   63 1
  63   22   64 1
  64   22   65 1
  65   23   24 1
  66   23   66 1
  67   23   67 1
  68   24   25 1
  69   24   68 1
  70   24   69 1
  71   25   26 1
  72   25   70 1
  73   26   27 1
  74   27   71 1
  75   27   72 1
  76   27   73 1
  77   28   74 1
  78   29   75 1

#	End of record

