#	Name: ASD07480049
#	Creating user name:	WinNT
#	Creation time:	15. 06. 2019 21:11

#	Modifying user name:	WinNT
#	Modification time:	15. 06. 2019 21:11

#	Program:	/corina/corina34_cracker 3.40 0067  02.08.2006

@<TRIPOS>MOLECULE
ASD07480049
  69   73    0    0    0
SMALL
NO_CHARGES


@<TRIPOS>ATOM
   1 C1             0.0764     1.5137    -0.1305 C.ar    
   2 C2             1.0607     1.8337     0.7859 C.ar    
   3 C3             2.1763     1.0291     0.9131 C.ar    
   4 C4             2.3089    -0.1031     0.1195 C.ar    
   5 C5             1.3183    -0.4229    -0.8004 C.ar    
   6 C6             0.2047     0.3862    -0.9232 C.ar    
   7 Cl7           -1.0345    -0.0122    -2.0718 Cl      
   8 C8             3.2490     1.3797     1.9118 C.3     
   9 N9             3.4361    -0.9181     0.2457 N.3     
  10 C10            4.2322    -0.9109    -0.9895 C.3     
  11 C11            5.4958    -1.7497    -0.7838 C.3     
  12 N12            5.1160    -3.1202    -0.4135 N.3     
  13 C13            4.3199    -3.1274     0.8217 C.3     
  14 C14            3.0563    -2.2886     0.6160 C.3     
  15 C15            6.3015    -3.9774    -0.2807 C.3     
  16 C16            5.8966    -5.3150     0.3420 C.3     
  17 C17            7.1314    -6.2078     0.4802 C.3     
  18 N18            6.7437    -7.4885     1.0765 N.am    
  19 C19            7.6737    -8.4393     1.2947 C.2     
  20 C20            7.2832    -9.7291     1.8951 C.ar    
  21 O21            8.8345    -8.2340     0.9966 O.2     
  22 C22            8.2460   -10.7168     2.1223 C.ar    
  23 C23            7.8758   -11.9218     2.6846 C.ar    
  24 C24            6.5375   -12.1628     3.0109 C.ar    
  25 C25            5.5834   -11.1740     2.7909 C.ar    
  26 C26            5.9504    -9.9652     2.2437 C.ar    
  27 N27            8.8383   -12.9140     2.9245 N.am    
  28 C28            8.5145   -13.9620     3.7124 C.2     
  29 C29            7.1745   -13.9805     4.3979 C.3     
  30 N30            6.1536   -13.3918     3.5297 N.3     
  31 C31            6.7838   -15.4183     4.7455 C.3     
  32 C32            5.4267   -15.4089     5.4563 C.3     
  33 C33            4.3874   -14.7374     4.5550 C.3     
  34 C34            4.8535   -13.3210     4.2066 C.3     
  35 O35            9.2945   -14.8782     3.8656 O.2     
  36 H36           -0.7968     2.1423    -0.2249 H       
  37 H37            0.9576     2.7140     1.4029 H       
  38 H38            1.4186    -1.3024    -1.4192 H       
  39 H39            3.0747     0.8338     2.8390 H       
  40 H40            4.2243     1.1078     1.5080 H       
  41 H41            3.2240     2.4511     2.1108 H       
  42 H42            3.6438    -1.3335    -1.8039 H       
  43 H43            4.5118     0.1134    -1.2360 H       
  44 H44            6.0735    -1.7696    -1.7079 H       
  45 H45            6.0976    -1.3114     0.0123 H       
  46 H46            4.0403    -4.1517     1.0682 H       
  47 H47            4.9083    -2.7047     1.6361 H       
  48 H48            2.4786    -2.2687     1.5401 H       
  49 H49            2.4545    -2.7269    -0.1801 H       
  50 H50            6.7360    -4.1515    -1.2651 H       
  51 H51            7.0352    -3.4863     0.3586 H       
  52 H52            5.4621    -5.1408     1.3263 H       
  53 H53            5.1629    -5.8060    -0.2973 H       
  54 H54            7.5659    -6.3819    -0.5041 H       
  55 H55            7.8651    -5.7167     1.1195 H       
  56 H56            5.8176    -7.6523     1.3142 H       
  57 H57            9.2777   -10.5374     1.8581 H       
  58 H58            4.5516   -11.3540     3.0542 H       
  59 H59            5.2056    -9.2014     2.0753 H       
  60 H60            9.7222   -12.8485     2.5305 H       
  61 H61            7.2357   -13.4052     5.3217 H       
  62 H62            6.7127   -16.0080     3.8316 H       
  63 H63            7.5370   -15.8521     5.4033 H       
  64 H64            5.1188   -16.4333     5.6661 H       
  65 H65            5.5096   -14.8548     6.3913 H       
  66 H66            4.2715   -15.3174     3.6394 H       
  67 H67            3.4318   -14.6874     5.0770 H       
  68 H68            4.9504   -12.7347     5.1203 H       
  69 H69            4.1248   -12.8501     3.5468 H       
@<TRIPOS>BOND
   1    1    2 ar
   2    1    6 ar
   3    1   36 1
   4    2    3 ar
   5    2   37 1
   6    3    4 ar
   7    3    8 1
   8    4    5 ar
   9    4    9 1
  10    5    6 ar
  11    5   38 1
  12    6    7 1
  13    8   39 1
  14    8   40 1
  15    8   41 1
  16    9   10 1
  17    9   14 1
  18   10   11 1
  19   10   42 1
  20   10   43 1
  21   11   12 1
  22   11   44 1
  23   11   45 1
  24   12   13 1
  25   12   15 1
  26   13   14 1
  27   13   46 1
  28   13   47 1
  29   14   48 1
  30   14   49 1
  31   15   16 1
  32   15   50 1
  33   15   51 1
  34   16   17 1
  35   16   52 1
  36   16   53 1
  37   17   18 1
  38   17   54 1
  39   17   55 1
  40   18   19 am
  41   18   56 1
  42   19   20 1
  43   19   21 2
  44   20   22 ar
  45   20   26 ar
  46   22   23 ar
  47   22   57 1
  48   23   24 ar
  49   23   27 1
  50   24   25 ar
  51   24   30 1
  52   25   26 ar
  53   25   58 1
  54   26   59 1
  55   27   28 am
  56   27   60 1
  57   28   29 1
  58   28   35 2
  59   29   30 1
  60   29   31 1
  61   29   61 1
  62   30   34 1
  63   31   32 1
  64   31   62 1
  65   31   63 1
  66   32   33 1
  67   32   64 1
  68   32   65 1
  69   33   34 1
  70   33   66 1
  71   33   67 1
  72   34   68 1
  73   34   69 1

#	End of record

