#	Name: ASD01810002
#	Creating user name:	WinNT
#	Creation time:	15. 06. 2019 19:23

#	Modifying user name:	WinNT
#	Modification time:	15. 06. 2019 19:23

#	Program:	/corina/corina34_cracker 3.40 0067  02.08.2006

@<TRIPOS>MOLECULE
ASD01810002
  41   45    0    0    0
SMALL
NO_CHARGES


@<TRIPOS>ATOM
   1 N1            -0.0163     1.3479     0.0095 N.am    
   2 C2             0.0021    -0.0041     0.0020 C.2     
   3 C3            -1.2676    -0.7370    -0.3573 C.3     
   4 C4            -2.5160    -0.1239     0.2725 C.3     
   5 C5            -2.5124     1.3730     0.1210 C.ar    
   6 C6            -1.2663     1.9808     0.0316 C.ar    
   7 C7            -3.6305     2.1615     0.0681 C.ar    
   8 C8            -3.5035     3.5489    -0.0485 C.ar    
   9 C9            -2.2642     4.1483    -0.0988 C.ar    
  10 C10           -1.1113     3.3585    -0.0513 C.ar    
  11 C11            0.9557     2.3072     0.0053 C.ar    
  12 C12            0.3354     3.5828    -0.0415 C.ar    
  13 C13            1.0907     4.7587    -0.0672 C.ar    
  14 C14            2.4742     4.6214    -0.0387 C.ar    
  15 C15            3.0772     3.3792     0.0125 C.ar    
  16 C16            2.3457     2.2038     0.0385 C.ar    
  17 C17           -4.7732     4.3584    -0.1226 C.3     
  18 N18           -4.5084     5.7655     0.1895 N.3     
  19 C19           -3.4202     6.2789    -0.6578 C.3     
  20 C20           -2.1086     5.6434    -0.1968 C.3     
  21 O21            1.0140    -0.6129     0.2770 O.2     
  22 O22            0.4997     5.9808    -0.1181 O.3     
  23 C23            1.3637     7.1188    -0.1406 C.3     
  24 H24           -1.3820    -0.7281    -1.4413 H       
  25 H25           -1.1803    -1.7716    -0.0256 H       
  26 H26           -3.4010    -0.5315    -0.2161 H       
  27 H27           -2.5440    -0.3769     1.3323 H       
  28 H28           -4.6110     1.7115     0.1162 H       
  29 H29            3.0922     5.5070    -0.0574 H       
  30 H30            4.1555     3.3233     0.0351 H       
  31 H31            2.8343     1.2415     0.0788 H       
  32 H32           -5.1875     4.2854    -1.1282 H       
  33 H33           -5.4944     3.9616     0.5919 H       
  34 H34           -5.3429     6.3227     0.0833 H       
  35 H35           -3.6098     6.0155    -1.6983 H       
  36 H36           -3.3578     7.3626    -0.5585 H       
  37 H37           -1.8369     6.0434     0.7801 H       
  38 H38           -1.3215     5.8788    -0.9132 H       
  39 H39            1.9769     7.1274     0.7605 H       
  40 H40            2.0083     7.0684    -1.0182 H       
  41 H41            0.7651     8.0288    -0.1814 H       
@<TRIPOS>BOND
   1    1    2 am
   2    1   11 1
   3    1    6 1
   4    2    3 1
   5    2   21 2
   6    3    4 1
   7    3   24 1
   8    3   25 1
   9    4    5 1
  10    4   26 1
  11    4   27 1
  12    5    6 ar
  13    5    7 ar
  14    6   10 ar
  15    7    8 ar
  16    7   28 1
  17    8    9 ar
  18    8   17 1
  19    9   10 ar
  20    9   20 1
  21   10   12 1
  22   11   12 ar
  23   11   16 ar
  24   12   13 ar
  25   13   14 ar
  26   13   22 1
  27   14   15 ar
  28   14   29 1
  29   15   16 ar
  30   15   30 1
  31   16   31 1
  32   17   18 1
  33   17   32 1
  34   17   33 1
  35   18   19 1
  36   18   34 1
  37   19   20 1
  38   19   35 1
  39   19   36 1
  40   20   37 1
  41   20   38 1
  42   22   23 1
  43   23   39 1
  44   23   40 1
  45   23   41 1

#	End of record

