#	Name: ASD03740270
#	Creating user name:	WinNT
#	Creation time:	15. 06. 2019 20:47

#	Modifying user name:	WinNT
#	Modification time:	15. 06. 2019 20:47

#	Program:	/corina/corina34_cracker 3.40 0067  02.08.2006

@<TRIPOS>MOLECULE
ASD03740270
  57   60    0    0    0
SMALL
NO_CHARGES


@<TRIPOS>ATOM
   1 C1            -0.1044     1.7171     1.0720 C.ar    
   2 C2            -0.1688     0.3504     1.2549 C.ar    
   3 C3             2.1804     0.1686     0.7844 C.ar    
   4 C4             3.8490     9.9232    -2.1223 C.2     
   5 C5             5.6205     9.5844    -3.4255 C.2     
   6 C6             1.1051     2.3182     0.7443 C.ar    
   7 C7             0.9707    -0.4283     1.1131 C.ar    
   8 C8             2.2426     1.5319     0.6008 C.ar    
   9 C9             3.7031     8.5859    -2.2472 C.2     
  10 C10            2.6363     7.7654    -1.6367 C.2     
  11 C11            1.9156     5.6971    -0.5960 C.2     
  12 C12            2.9313     6.4589    -1.1692 C.2     
  13 C13            2.1883     4.3352    -0.0995 C.2     
  14 C14            0.6161     6.2534    -0.4977 C.2     
  15 C15           -0.2556    -3.8129     1.7957 C.2     
  16 C16           -2.6821    10.0345     1.9758 C.3     
  17 C17           -2.6750    10.4859    -0.4815 C.3     
  18 C18           -0.3742    -2.3194     1.6332 C.3     
  19 C19           -1.0950     8.8091     0.4852 C.3     
  20 C20           -0.9537     8.0762    -0.8504 C.3     
  21 C21           -2.4982     9.4096     0.5914 C.3     
  22 N22            4.8839    10.4151    -2.7662 N.2     
  23 N23            1.1806     3.6986     0.5648 N.pl3   
  24 N24            1.4210     8.2520    -1.5249 N.2     
  25 N25            3.3642     3.8432    -0.3317 N.am    
  26 N26            0.3899     7.5013    -0.9522 N.am    
  27 N27           -1.3415    -4.5443     2.1158 N.am    
  28 O28           -0.2914     5.6078    -0.0004 O.2     
  29 O29            0.8170    -4.3568     1.6385 O.2     
  30 O30            4.4917     2.4711     1.3881 O.2     
  31 O31            4.2715     1.6309    -0.9593 O.2     
  32 O32            4.1827     5.9590    -1.2791 O.3     
  33 O33            0.9029    -1.7740     1.2963 O.3     
  34 S34            5.0120     7.9946    -3.2681 S.3     
  35 S35            3.7644     2.3169     0.1771 S.o2    
  36 H36           -0.9948     2.3188     1.1792 H       
  37 H37           -1.1097    -0.1145     1.5097 H       
  38 H38            3.0695    -0.4343     0.6734 H       
  39 H39            3.1711    10.5358    -1.5466 H       
  40 H40            6.4967     9.8555    -3.9958 H       
  41 H41           -3.6817    10.4623     2.0515 H       
  42 H42           -2.5562     9.2677     2.7402 H       
  43 H43           -1.9393    10.8187     2.1220 H       
  44 H44           -2.5440    10.0407    -1.4678 H       
  45 H45           -3.6746    10.9137    -0.4058 H       
  46 H46           -1.9321    11.2701    -0.3353 H       
  47 H47           -1.0859    -2.0958     0.8385 H       
  48 H48           -0.7225    -1.8788     2.5674 H       
  49 H49           -0.9375     8.1066     1.3036 H       
  50 H50           -0.3535     9.6060     0.5426 H       
  51 H51           -1.6952     7.2794    -0.9079 H       
  52 H52           -1.1111     8.7788    -1.6688 H       
  53 H53           -3.2410     8.6254     0.4452 H       
  54 H54            0.4691     4.2430     0.9367 H       
  55 H55           -2.1994    -4.1094     2.2415 H       
  56 H56           -1.2652    -5.5056     2.2204 H       
  57 H57            4.8322     6.5941    -1.6104 H       
@<TRIPOS>BOND
   1    1    2 ar
   2    1    6 ar
   3    1   36 1
   4    2    7 ar
   5    2   37 1
   6    3    7 ar
   7    3    8 ar
   8    3   38 1
   9    4    9 2
  10    4   22 1
  11    4   39 1
  12    5   22 2
  13    5   34 1
  14    5   40 1
  15    6    8 ar
  16    6   23 1
  17    7   33 1
  18    8   35 1
  19    9   10 1
  20    9   34 1
  21   10   12 1
  22   10   24 2
  23   11   12 2
  24   11   13 1
  25   11   14 1
  26   12   32 1
  27   13   23 1
  28   13   25 2
  29   14   26 am
  30   14   28 2
  31   15   18 1
  32   15   27 am
  33   15   29 2
  34   16   21 1
  35   16   41 1
  36   16   42 1
  37   16   43 1
  38   17   21 1
  39   17   44 1
  40   17   45 1
  41   17   46 1
  42   18   33 1
  43   18   47 1
  44   18   48 1
  45   19   20 1
  46   19   21 1
  47   19   49 1
  48   19   50 1
  49   20   26 1
  50   20   51 1
  51   20   52 1
  52   21   53 1
  53   23   54 1
  54   24   26 1
  55   25   35 am
  56   27   55 1
  57   27   56 1
  58   30   35 2
  59   31   35 2
  60   32   57 1

#	End of record

