#	Name: ASD09740656
#	Creating user name:	WinNT
#	Creation time:	15. 06. 2019 21:23

#	Modifying user name:	WinNT
#	Modification time:	15. 06. 2019 21:23

#	Program:	/corina/corina34_cracker 3.40 0067  02.08.2006

@<TRIPOS>MOLECULE
ASD09740656
  57   60    0    0    0
SMALL
NO_CHARGES


@<TRIPOS>ATOM
   1 C1             1.2426     2.0531    -1.3338 C.1     
   2 C2             0.9291     3.4068    -0.9876 C.ar    
   3 C3             1.9568     4.3348    -0.7811 C.ar    
   4 C4             1.6533     5.6425    -0.4462 C.ar    
   5 C5             0.3384     6.0395    -0.3139 C.ar    
   6 C6            -0.6963     5.1231    -0.5174 C.ar    
   7 C7            -0.4004     3.8060    -0.8610 C.ar    
   8 N8             1.4914     0.9792    -1.6084 N.1     
   9 F9             3.2465     3.9529    -0.9085 F       
  10 S10           -2.6578     7.1737     0.0473 S.3     
  11 C11           -2.1036     5.5521    -0.3738 C.2     
  12 N12           -3.1578     4.7983    -0.5364 N.2     
  13 N13           -4.2890     5.3314    -0.3740 N.2     
  14 C14           -4.3225     6.5973    -0.0554 C.2     
  15 C15           -9.1676     6.7174     0.0974 C.3     
  16 C16           -8.6629     5.2606     0.1706 C.3     
  17 C17           -7.1947     5.3964    -0.2859 C.3     
  18 C18           -6.8019     6.8159     0.0627 C.ar    
  19 C19           -5.5389     7.4041     0.1786 C.ar    
  20 C20           -5.4279     8.7527     0.5156 C.ar    
  21 C21           -6.5670     9.5003     0.7332 C.ar    
  22 C22           -7.8133     8.9142     0.6174 C.ar    
  23 C23           -7.9331     7.5740     0.2827 C.ar    
  24 O24           -9.7617     6.9729    -1.1768 O.3     
  25 Si25         -11.3886     6.8563    -1.1856 Si      
  26 C26          -11.8938     5.1715    -0.5715 C.3     
  27 C27          -12.1109     8.1649    -0.0735 C.3     
  28 C28          -12.0192     7.0994    -2.9216 C.3     
  29 C29          -11.4261     6.0247    -3.8349 C.3     
  30 C30          -13.5453     6.9901    -2.9298 C.3     
  31 C31          -11.6043     8.4831    -3.4259 C.3     
  32 H32            2.4488     6.3554    -0.2873 H       
  33 H33            0.1085     7.0617    -0.0519 H       
  34 H34           -1.1976     3.0958    -1.0235 H       
  35 H35           -9.8847     6.9098     0.8954 H       
  36 H36           -8.7180     4.8821     1.1914 H       
  37 H37           -9.2234     4.6215    -0.5116 H       
  38 H38           -6.5646     4.6870     0.2505 H       
  39 H39           -7.1165     5.2354    -1.3611 H       
  40 H40           -4.4539     9.2103     0.6063 H       
  41 H41           -6.4846    10.5449     0.9948 H       
  42 H42           -8.7011     9.5048     0.7894 H       
  43 H43          -11.5248     5.0293     0.4442 H       
  44 H44          -12.9810     5.0937    -0.5774 H       
  45 H45          -11.4712     4.4059    -1.2222 H       
  46 H46          -11.7403     9.1442    -0.3765 H       
  47 H47          -13.1980     8.1479    -0.1510 H       
  48 H48          -11.8169     7.9682     0.9575 H       
  49 H49          -11.7216     5.0390    -3.4756 H       
  50 H50          -11.7951     6.1670    -4.8506 H       
  51 H51          -10.3389     6.1026    -3.8291 H       
  52 H52          -13.9679     7.7557    -2.2792 H       
  53 H53          -13.9143     7.1323    -3.9455 H       
  54 H54          -13.8409     6.0044    -2.5706 H       
  55 H55          -10.5171     8.5609    -3.4201 H       
  56 H56          -11.9733     8.6253    -4.4416 H       
  57 H57          -12.0269     9.2487    -2.7753 H       
@<TRIPOS>BOND
   1    1    2 1
   2    1    8 3
   3    2    3 ar
   4    2    7 ar
   5    3    4 ar
   6    3    9 1
   7    4    5 ar
   8    4   32 1
   9    5    6 ar
  10    5   33 1
  11    6    7 ar
  12    6   11 1
  13    7   34 1
  14   10   11 1
  15   10   14 1
  16   11   12 2
  17   12   13 1
  18   13   14 2
  19   14   19 1
  20   15   16 1
  21   15   23 1
  22   15   24 1
  23   15   35 1
  24   16   17 1
  25   16   36 1
  26   16   37 1
  27   17   18 1
  28   17   38 1
  29   17   39 1
  30   18   19 ar
  31   18   23 ar
  32   19   20 ar
  33   20   21 ar
  34   20   40 1
  35   21   22 ar
  36   21   41 1
  37   22   23 ar
  38   22   42 1
  39   24   25 1
  40   25   26 1
  41   25   27 1
  42   25   28 1
  43   26   43 1
  44   26   44 1
  45   26   45 1
  46   27   46 1
  47   27   47 1
  48   27   48 1
  49   28   29 1
  50   28   31 1
  51   28   30 1
  52   29   49 1
  53   29   50 1
  54   29   51 1
  55   30   52 1
  56   30   53 1
  57   30   54 1
  58   31   55 1
  59   31   56 1
  60   31   57 1

#	End of record

