#	Name: ASD03180011
#	Creating user name:	WinNT
#	Creation time:	15. 06. 2019 20:33

#	Modifying user name:	WinNT
#	Modification time:	15. 06. 2019 20:33

#	Program:	/corina/corina34_cracker 3.40 0067  02.08.2006

@<TRIPOS>MOLECULE
ASD03180011
  58   61    0    0    0
SMALL
NO_CHARGES


@<TRIPOS>ATOM
   1 C1             8.7099     2.6807    -0.3081 C.ar    
   2 C2             8.8735     4.0542    -0.3230 C.ar    
   3 C3             7.7654     4.8822    -0.3244 C.ar    
   4 C4             6.4954     4.3369    -0.3109 C.ar    
   5 C5             6.3325     2.9642    -0.2955 C.ar    
   6 C6             7.4396     2.1363    -0.2946 C.ar    
   7 S7             4.7133     2.2696    -0.2772 S.o2    
   8 O8             3.8706     3.2326     0.3407 O.2     
   9 N9             4.2127     2.1516    -1.8513 N.am    
  10 O10            4.8530     0.9386     0.2003 O.2     
  11 C11            3.4115     3.2234    -2.4475 C.3     
  12 C12            4.5710     0.9753    -2.6476 C.3     
  13 C13            3.3162     0.2788    -3.1075 C.ar    
  14 C14            4.3167     4.1770    -3.1839 C.2     
  15 N15            3.7965     5.2480    -3.8154 N.am    
  16 C16            4.6174     6.0608    -4.6081 C.ar    
  17 O17            5.5133     3.9806    -3.2084 O.2     
  18 C18            2.7140     0.6520    -4.2946 C.ar    
  19 C19            1.5630     0.0131    -4.7164 C.ar    
  20 C20            1.0144    -0.9992    -3.9514 C.ar    
  21 C21            1.6171    -1.3730    -2.7649 C.ar    
  22 C22            2.7706    -0.7371    -2.3452 C.ar    
  23 C23            5.9777     6.1434    -4.3422 C.ar    
  24 C24            6.7862     6.9446    -5.1238 C.ar    
  25 C25            6.2395     7.6674    -6.1744 C.ar    
  26 C26            4.8802     7.5857    -6.4402 C.ar    
  27 C27            4.0718     6.7796    -5.6635 C.ar    
  28 Br28          10.6112     4.7996    -0.3408 Br      
  29 O29            7.0360     8.4565    -6.9433 O.3     
  30 C30            7.8166     7.8556    -7.8793 C.ar    
  31 C31            7.6912     6.4947    -8.1191 C.ar    
  32 C32            8.4857     5.8864    -9.0715 C.ar    
  33 C33            9.4055     6.6323    -9.7852 C.ar    
  34 C34            9.5324     7.9886    -9.5481 C.ar    
  35 C35            8.7364     8.6030    -8.6009 C.ar    
  36 H36            9.5748     2.0338    -0.3116 H       
  37 H37            7.8926     5.9546    -0.3356 H       
  38 H38            5.6302     4.9833    -0.3119 H       
  39 H39            7.3118     1.0639    -0.2830 H       
  40 H40            2.6916     2.7943    -3.1444 H       
  41 H41            2.8805     3.7603    -1.6614 H       
  42 H42            5.1522     1.2873    -3.5154 H       
  43 H43            5.1639     0.2919    -2.0398 H       
  44 H44            2.8538     5.4562    -3.7210 H       
  45 H45            3.1426     1.4429    -4.8922 H       
  46 H46            1.0921     0.3052    -5.6434 H       
  47 H47            0.1148    -1.4978    -4.2807 H       
  48 H48            1.1883    -2.1637    -2.1671 H       
  49 H49            3.2435    -1.0316    -1.4200 H       
  50 H50            6.4032     5.5813    -3.5241 H       
  51 H51            7.8443     7.0089    -4.9171 H       
  52 H52            4.4551     8.1488    -7.2579 H       
  53 H53            3.0146     6.7123    -5.8734 H       
  54 H54            6.9734     5.9114    -7.5614 H       
  55 H55            8.3885     4.8271    -9.2585 H       
  56 H56           10.0262     6.1547   -10.5288 H       
  57 H57           10.2519     8.5690   -10.1067 H       
  58 H58            8.8331     9.6631    -8.4191 H       
@<TRIPOS>BOND
   1    1    2 ar
   2    1    6 ar
   3    1   36 1
   4    2    3 ar
   5    2   28 1
   6    3    4 ar
   7    3   37 1
   8    4    5 ar
   9    4   38 1
  10    5    6 ar
  11    5    7 1
  12    6   39 1
  13    7    8 2
  14    7    9 am
  15    7   10 2
  16    9   11 1
  17    9   12 1
  18   11   14 1
  19   11   40 1
  20   11   41 1
  21   12   13 1
  22   12   42 1
  23   12   43 1
  24   13   18 ar
  25   13   22 ar
  26   14   15 am
  27   14   17 2
  28   15   16 1
  29   15   44 1
  30   16   23 ar
  31   16   27 ar
  32   18   19 ar
  33   18   45 1
  34   19   20 ar
  35   19   46 1
  36   20   21 ar
  37   20   47 1
  38   21   22 ar
  39   21   48 1
  40   22   49 1
  41   23   24 ar
  42   23   50 1
  43   24   25 ar
  44   24   51 1
  45   25   26 ar
  46   25   29 1
  47   26   27 ar
  48   26   52 1
  49   27   53 1
  50   29   30 1
  51   30   31 ar
  52   30   35 ar
  53   31   32 ar
  54   31   54 1
  55   32   33 ar
  56   32   55 1
  57   33   34 ar
  58   33   56 1
  59   34   35 ar
  60   34   57 1
  61   35   58 1

#	End of record

