#	Name: ASD01815861
#	Creating user name:	WinNT
#	Creation time:	15. 06. 2019 19:34

#	Modifying user name:	WinNT
#	Modification time:	15. 06. 2019 19:34

#	Program:	/corina/corina34_cracker 3.40 0067  02.08.2006

@<TRIPOS>MOLECULE
ASD01815861
  47   52    0    0    0
SMALL
NO_CHARGES


@<TRIPOS>ATOM
   1 C1            -0.0168     1.3901     0.0097 C.ar    
   2 C2             0.0021    -0.0041     0.0020 C.ar    
   3 C3            -1.1943    -0.6907     0.0102 C.ar    
   4 N4            -2.3450    -0.0447     0.0247 N.ar    
   5 C5            -2.4047     1.2737     0.0324 C.ar    
   6 C6            -1.2535     2.0337     0.0308 C.ar    
   7 N7             1.1715     2.1224     0.0023 N.am    
   8 C8             1.2494     3.4695     0.0088 C.2     
   9 N9             2.4552     1.5667    -0.0069 N.2     
  10 C10            3.3522     2.5179    -0.0122 C.2     
  11 C11            2.6241     3.8048    -0.0026 C.2     
  12 O12            0.3118     4.2508     0.0216 O.2     
  13 C13            4.8222     2.5619    -0.0213 C.2     
  14 C14            5.4532     3.7882    -0.0239 C.2     
  15 N15            4.6867     4.9582    -0.0174 N.pl3   
  16 C16            3.3507     4.9709    -0.0066 C.2     
  17 C17            5.3893     6.2437    -0.0199 C.3     
  18 C18            5.6213     6.6866    -1.4416 C.ar    
  19 C19            4.6760     7.4641    -2.0850 C.ar    
  20 C20            4.8856     7.8712    -3.3881 C.ar    
  21 C21            6.0470     7.4993    -4.0518 C.ar    
  22 C22            6.9945     6.7191    -3.4029 C.ar    
  23 C23            6.7816     6.3194    -2.0981 C.ar    
  24 S24            6.0196     1.2738    -0.0303 S.3     
  25 C25            7.3319     2.4403    -0.0372 C.2     
  26 C26            6.8476     3.6759    -0.0328 C.2     
  27 N27            6.2623     7.9106    -5.3745 N.pl3   
  28 C28            7.3441     7.6201    -6.1322 C.2     
  29 C29            7.1677     8.2009    -7.3415 C.2     
  30 C30            5.9382     8.8686    -7.3236 C.2     
  31 N31            5.3922     8.6901    -6.1476 N.2     
  32 H32            0.9403    -0.5389    -0.0105 H       
  33 H33           -1.1893    -1.7707     0.0044 H       
  34 H34           -3.3671     1.7637     0.0442 H       
  35 H35           -1.3094     3.1123     0.0371 H       
  36 H36            2.8311     5.9177    -0.0024 H       
  37 H37            4.7858     6.9886     0.4988 H       
  38 H38            6.3477     6.1350     0.4877 H       
  39 H39            3.7727     7.7530    -1.5683 H       
  40 H40            4.1466     8.4778    -3.8904 H       
  41 H41            7.8987     6.4280    -3.9167 H       
  42 H42            7.5183     5.7124    -1.5928 H       
  43 H43            8.3821     2.1886    -0.0438 H       
  44 H44            7.4916     4.5429    -0.0362 H       
  45 H45            8.1961     7.0308    -5.8267 H       
  46 H46            7.8547     8.1569    -8.1737 H       
  47 H47            5.5111     9.4305    -8.1410 H       
@<TRIPOS>BOND
   1    1    2 ar
   2    1    7 1
   3    1    6 ar
   4    2    3 ar
   5    2   32 1
   6    3    4 ar
   7    3   33 1
   8    4    5 ar
   9    5    6 ar
  10    5   34 1
  11    6   35 1
  12    7    8 am
  13    7    9 1
  14    8   12 2
  15    8   11 1
  16    9   10 2
  17   10   11 1
  18   10   13 1
  19   11   16 2
  20   13   14 2
  21   13   24 1
  22   14   15 1
  23   14   26 1
  24   15   16 1
  25   15   17 1
  26   16   36 1
  27   17   18 1
  28   17   37 1
  29   17   38 1
  30   18   19 ar
  31   18   23 ar
  32   19   20 ar
  33   19   39 1
  34   20   21 ar
  35   20   40 1
  36   21   22 ar
  37   21   27 1
  38   22   23 ar
  39   22   41 1
  40   23   42 1
  41   24   25 1
  42   25   26 2
  43   25   43 1
  44   26   44 1
  45   27   28 1
  46   27   31 1
  47   28   29 2
  48   28   45 1
  49   29   30 1
  50   29   46 1
  51   30   31 2
  52   30   47 1

#	End of record

