#	Name: ASD01790002
#	Creating user name:	WinNT
#	Creation time:	15. 06. 2019 19:23

#	Modifying user name:	WinNT
#	Modification time:	15. 06. 2019 19:23

#	Program:	/corina/corina34_cracker 3.40 0067  02.08.2006

@<TRIPOS>MOLECULE
ASD01790002
  53   52    0    0    0
SMALL
NO_CHARGES


@<TRIPOS>ATOM
   1 S1            -3.2329     4.2483     1.0833 S.o2    
   2 O2            -4.3553     5.0396     0.7185 O.2     
   3 O3            -3.0098     2.9377     0.5813 O.2     
   4 O4            -1.9981     5.0622     0.7237 O.3     
   5 O5            -3.2669     4.1275     2.6001 O.3     
   6 C6            -8.4301     2.6727    -7.2839 C.3     
   7 C7            -7.3268     3.6528    -6.8801 C.3     
   8 C8            -6.6808     3.1841    -5.5748 C.3     
   9 C9            -5.5775     4.1642    -5.1711 C.3     
  10 C10           -4.9315     3.6955    -3.8658 C.3     
  11 C11           -3.8282     4.6756    -3.4621 C.3     
  12 C12           -3.1822     4.2068    -2.1567 C.3     
  13 C13           -2.0789     5.1869    -1.7530 C.3     
  14 C14           -1.4426     4.7252    -0.4673 C.2     
  15 C15           -0.3473     3.9946    -0.4999 C.2     
  16 C16            0.2245     3.4366     0.7779 C.3     
  17 C17            1.6343     3.9917     0.9909 C.3     
  18 C18            2.2149     3.4252     2.2882 C.3     
  19 C19            3.6246     3.9802     2.5011 C.3     
  20 C20            4.2052     3.4138     3.7984 C.3     
  21 C21            5.6150     3.9688     4.0114 C.3     
  22 H22           -4.0199     3.6234     2.9377 H       
  23 H23           -8.8903     3.0067    -8.2138 H       
  24 H24           -8.0008     1.6811    -7.4266 H       
  25 H25           -9.1852     2.6323    -6.4988 H       
  26 H26           -6.5717     3.6933    -7.6652 H       
  27 H27           -7.7561     4.6445    -6.7374 H       
  28 H28           -7.4359     3.1436    -4.7898 H       
  29 H29           -6.2515     2.1924    -5.7175 H       
  30 H30           -4.8224     4.2047    -5.9561 H       
  31 H31           -6.0068     5.1559    -5.0284 H       
  32 H32           -5.6866     3.6550    -3.0807 H       
  33 H33           -4.5022     2.7038    -4.0085 H       
  34 H34           -3.0731     4.7160    -4.2471 H       
  35 H35           -4.2575     5.6672    -3.3194 H       
  36 H36           -3.9373     4.1663    -1.3717 H       
  37 H37           -2.7529     3.2151    -2.2994 H       
  38 H38           -1.3238     5.2274    -2.5380 H       
  39 H39           -2.5082     6.1786    -1.6103 H       
  40 H40            0.1411     3.7953    -1.4423 H       
  41 H41           -0.4099     3.7248     1.6162 H       
  42 H42            0.2682     2.3495     0.7122 H       
  43 H43            2.2687     3.7035     0.1527 H       
  44 H44            1.5907     5.0788     1.0566 H       
  45 H45            1.5805     3.7133     3.1264 H       
  46 H46            2.2585     2.3380     2.2225 H       
  47 H47            4.2590     3.6921     1.6629 H       
  48 H48            3.5810     5.0674     2.5669 H       
  49 H49            3.5708     3.7019     4.6367 H       
  50 H50            4.2488     2.3266     3.7327 H       
  51 H51            6.2493     3.6806     3.1732 H       
  52 H52            5.5713     5.0559     4.0771 H       
  53 H53            6.0286     3.5652     4.9356 H       
@<TRIPOS>BOND
   1    1    2 2
   2    1    3 2
   3    1    4 1
   4    1    5 1
   5    4   14 1
   6    5   22 1
   7    6    7 1
   8    6   23 1
   9    6   24 1
  10    6   25 1
  11    7    8 1
  12    7   26 1
  13    7   27 1
  14    8    9 1
  15    8   28 1
  16    8   29 1
  17    9   10 1
  18    9   30 1
  19    9   31 1
  20   10   11 1
  21   10   32 1
  22   10   33 1
  23   11   12 1
  24   11   34 1
  25   11   35 1
  26   12   13 1
  27   12   36 1
  28   12   37 1
  29   13   14 1
  30   13   38 1
  31   13   39 1
  32   14   15 2
  33   15   16 1
  34   15   40 1
  35   16   17 1
  36   16   41 1
  37   16   42 1
  38   17   18 1
  39   17   43 1
  40   17   44 1
  41   18   19 1
  42   18   45 1
  43   18   46 1
  44   19   20 1
  45   19   47 1
  46   19   48 1
  47   20   21 1
  48   20   49 1
  49   20   50 1
  50   21   51 1
  51   21   52 1
  52   21   53 1

#	End of record

