#	Name: ASD01900497
#	Creating user name:	WinNT
#	Creation time:	15. 06. 2019 19:52

#	Modifying user name:	WinNT
#	Modification time:	15. 06. 2019 19:52

#	Program:	/corina/corina34_cracker 3.40 0067  02.08.2006

@<TRIPOS>MOLECULE
ASD01900497
  39   42    0    0    0
SMALL
NO_CHARGES


@<TRIPOS>ATOM
   1 C1            -0.0756     0.8111     0.8236 C.ar    
   2 C2            -0.1285    -0.5040     0.3799 C.ar    
   3 C3             1.0148    -1.1222    -0.0850 C.ar    
   4 C4             2.2185    -0.4289    -0.1090 C.ar    
   5 C5             2.2713     0.8861     0.3347 C.ar    
   6 C6             1.1274     1.5041     0.7998 C.ar    
   7 N7            -1.2370     1.4401     1.2899 N.pl3   
   8 N8             3.3777    -1.0556    -0.5798 N.pl3   
   9 C9            -1.1407     2.5551     2.1056 C.ar    
  10 N10           -2.2428     3.2134     2.4339 N.ar    
  11 C11           -2.1858     4.2822     3.2110 C.ar    
  12 C12           -0.9546     4.7107     3.6823 C.ar    
  13 C13            0.1781     3.9988     3.3194 C.ar    
  14 N14            0.0507     2.9353     2.5435 N.ar    
  15 C15            5.7051    -0.7910    -1.5943 C.ar    
  16 C16            6.3919     0.3224    -2.1148 C.ar    
  17 C17            7.6821     0.1490    -2.6144 C.ar    
  18 C18            8.2330    -1.1168    -2.5761 C.ar    
  19 C19            7.4977    -2.1701    -2.0482 C.ar    
  20 N20            6.2831    -1.9898    -1.5815 N.ar    
  21 N21            4.3553     0.9874    -1.4087 N.2     
  22 N22            5.5559     1.4010    -1.9950 N.pl3   
  23 C23            4.3965    -0.2950    -1.1616 C.2     
  24 C24           -1.4341    -1.2562     0.4064 C.3     
  25 H25            0.9737    -2.1449    -0.4297 H       
  26 H26            3.2070     1.4251     0.3165 H       
  27 H27            1.1684     2.5267     1.1449 H       
  28 H28           -2.1087     1.0947     1.0415 H       
  29 H29            3.4744    -2.0176    -0.5026 H       
  30 H30           -3.0875     4.8148     3.4749 H       
  31 H31           -0.8795     5.5805     4.3181 H       
  32 H32            1.1524     4.3066     3.6693 H       
  33 H33            8.2358     0.9825    -3.0208 H       
  34 H34            9.2300    -1.2867    -2.9550 H       
  35 H35            7.9334    -3.1579    -2.0212 H       
  36 H36            5.7636     2.3071    -2.2723 H       
  37 H37           -1.9579    -1.1083    -0.5380 H       
  38 H38           -1.2384    -2.3187     0.5508 H       
  39 H39           -2.0503    -0.8856     1.2256 H       
@<TRIPOS>BOND
   1    1    2 ar
   2    1    6 ar
   3    1    7 1
   4    2    3 ar
   5    2   24 1
   6    3    4 ar
   7    3   25 1
   8    4    5 ar
   9    4    8 1
  10    5    6 ar
  11    5   26 1
  12    6   27 1
  13    7    9 1
  14    7   28 1
  15    8   23 1
  16    8   29 1
  17    9   10 ar
  18    9   14 ar
  19   10   11 ar
  20   11   12 ar
  21   11   30 1
  22   12   13 ar
  23   12   31 1
  24   13   14 ar
  25   13   32 1
  26   15   16 ar
  27   15   20 ar
  28   15   23 1
  29   16   17 ar
  30   16   22 1
  31   17   18 ar
  32   17   33 1
  33   18   19 ar
  34   18   34 1
  35   19   20 ar
  36   19   35 1
  37   21   22 1
  38   21   23 2
  39   22   36 1
  40   24   37 1
  41   24   38 1
  42   24   39 1

#	End of record

