#	Name: ASD01810128
#	Creating user name:	WinNT
#	Creation time:	15. 06. 2019 19:23

#	Modifying user name:	WinNT
#	Modification time:	15. 06. 2019 19:23

#	Program:	/corina/corina34_cracker 3.40 0067  02.08.2006

@<TRIPOS>MOLECULE
ASD01810128
  40   43    0    0    0
SMALL
NO_CHARGES


@<TRIPOS>ATOM
   1 C1             0.0977     1.4754     0.3539 C.ar    
   2 C2             0.0797     0.0882     0.3461 C.ar    
   3 C3             1.2499    -0.6307     0.2162 C.ar    
   4 C4             2.4671     0.0383     0.0910 C.ar    
   5 C5             2.4806     1.4430     0.0993 C.ar    
   6 C6             1.2890     2.1559     0.2315 C.ar    
   7 N7             3.6443    -0.6677    -0.0386 N.pl3   
   8 C8             4.8374    -0.0728    -0.1603 C.2     
   9 C9             4.9775     1.3006    -0.1651 C.2     
  10 C10            3.7745     2.1383    -0.0339 C.2     
  11 O11            3.8448     3.3548    -0.0328 O.2     
  12 C12            6.3054     1.9158    -0.2999 C.2     
  13 O13            6.4291     3.2582    -0.3032 O.3     
  14 O14            7.2922     1.2142    -0.4084 O.2     
  15 C15            3.5871    -2.1316    -0.0427 C.3     
  16 C16            3.4445    -2.6248    -1.4595 C.ar    
  17 C17            4.5582    -2.7694    -2.2636 C.ar    
  18 N18            4.4446    -3.2002    -3.5050 N.ar    
  19 C19            3.2692    -3.5097    -4.0277 C.ar    
  20 C20            2.1067    -3.3889    -3.2764 C.ar    
  21 C21            2.1933    -2.9440    -1.9686 C.ar    
  22 N22            3.1962    -3.9622    -5.3486 N.pl3   
  23 C23            4.2441    -4.1282    -6.1969 C.2     
  24 C24            3.7512    -4.5798    -7.3730 C.2     
  25 C25            2.3624    -4.6943    -7.2435 C.2     
  26 N26            2.0300    -4.3311    -6.0316 N.2     
  27 F27            1.2169    -1.9812     0.2107 F       
  28 H28           -0.8272     2.0244     0.4518 H       
  29 H29           -0.8605    -0.4344     0.4431 H       
  30 H30            1.3004     3.2359     0.2375 H       
  31 H31            5.7199    -0.6878    -0.2576 H       
  32 H32            7.3227     3.6165    -0.3943 H       
  33 H33            4.5033    -2.5323     0.3911 H       
  34 H34            2.7314    -2.4634     0.5453 H       
  35 H35            5.5345    -2.5262    -1.8709 H       
  36 H36            1.1487    -3.6424    -3.7059 H       
  37 H37            1.3068    -2.8405    -1.3604 H       
  38 H38            5.2827    -3.9342    -5.9731 H       
  39 H39            4.3279    -4.8109    -8.2564 H       
  40 H40            1.6816    -5.0301    -8.0118 H       
@<TRIPOS>BOND
   1    1    2 ar
   2    1    6 ar
   3    1   28 1
   4    2    3 ar
   5    2   29 1
   6    3    4 ar
   7    3   27 1
   8    4    5 ar
   9    4    7 1
  10    5    6 ar
  11    5   10 1
  12    6   30 1
  13    7    8 1
  14    7   15 1
  15    8    9 2
  16    8   31 1
  17    9   10 1
  18    9   12 1
  19   10   11 2
  20   12   13 1
  21   12   14 2
  22   13   32 1
  23   15   16 1
  24   15   33 1
  25   15   34 1
  26   16   17 ar
  27   16   21 ar
  28   17   18 ar
  29   17   35 1
  30   18   19 ar
  31   19   20 ar
  32   19   22 1
  33   20   21 ar
  34   20   36 1
  35   21   37 1
  36   22   23 1
  37   22   26 1
  38   23   24 2
  39   23   38 1
  40   24   25 1
  41   24   39 1
  42   25   26 2
  43   25   40 1

#	End of record

