#	Name: ASD00840112
#	Creating user name:	WinNT
#	Creation time:	15. 06. 2019 18:37

#	Modifying user name:	WinNT
#	Modification time:	15. 06. 2019 18:37

#	Program:	/corina/corina34_cracker 3.40 0067  02.08.2006

@<TRIPOS>MOLECULE
ASD00840112
  92   97    0    0    0
SMALL
NO_CHARGES


@<TRIPOS>ATOM
   1 N1            -0.0800     1.3796     0.0134 N.3     
   2 C2            -0.1655    -0.0792     0.1577 C.3     
   3 C3             0.5931    -0.5143     1.4135 C.3     
   4 C4             2.0565    -0.0792     1.2964 C.3     
   5 C5             2.1154     1.4381     1.0985 C.3     
   6 C6             1.3126     1.8165    -0.1482 C.3     
   7 N7            -2.2642     5.3657    -2.7948 N.am    
   8 C8            -1.7475     4.1259    -2.8197 C.2     
   9 C9            -2.6357     3.2547    -1.9572 C.3     
  10 C10           -3.7065     4.2002    -1.4622 C.ar    
  11 C11           -4.7969     4.0265    -0.6474 C.ar    
  12 C12           -5.6294     5.1131    -0.3579 C.ar    
  13 C13           -5.3385     6.3689    -0.9053 C.ar    
  14 C14           -4.2408     6.5303    -1.7225 C.ar    
  15 C15           -3.4111     5.4458    -2.0099 C.ar    
  16 O16           -0.7558     3.7711    -3.4208 O.2     
  17 F17           -6.1362     7.4245    -0.6319 F       
  18 C18           -3.2465     2.1477    -2.7772 C.ar    
  19 C19           -4.0021     1.1615    -2.1592 C.ar    
  20 C20           -4.5629     0.1439    -2.9168 C.ar    
  21 C21           -4.3680     0.1144    -4.2843 C.ar    
  22 C22           -3.6144     1.0979    -4.8976 C.ar    
  23 C23           -3.0594     2.1169    -4.1454 C.ar    
  24 O24           -4.1919     1.1924    -0.8139 O.3     
  25 C25           -4.9807     0.1450    -0.2458 C.3     
  26 C26           -5.0827     0.3467     1.2674 C.3     
  27 S27           -1.6070     6.6544    -3.6007 S.o2    
  28 O28           -2.0542     7.8213    -2.9242 O.2     
  29 O29           -0.2333     6.3476    -3.7958 O.2     
  30 C30           -2.3398     6.6965    -5.2026 C.ar    
  31 C31           -2.1109     5.6603    -6.0972 C.ar    
  32 C32           -2.6876     5.6940    -7.3572 C.ar    
  33 C33           -3.4921     6.7633    -7.7206 C.ar    
  34 C34           -3.7178     7.7967    -6.8227 C.ar    
  35 C35           -3.1462     7.7581    -5.5650 C.ar    
  36 O36           -4.0585     6.7994    -8.9554 O.3     
  37 C37           -4.8754     7.9312    -9.2616 C.3     
  38 O38           -1.3216     4.6139    -5.7383 O.3     
  39 C39           -1.1297     3.5831    -6.7093 C.3     
  40 C40           -6.7701     4.9424     0.4908 C.1     
  41 N41           -7.6750     4.8070     1.1642 N.1     
  42 C42           -1.8555     2.6875    -0.7994 C.2     
  43 O43           -2.1293     3.0162     0.3355 O.2     
  44 N44           -0.8533     1.8150    -1.0250 N.am    
  45 N45            2.7765    -0.4424     2.5242 N.3     
  46 C46            4.2107    -0.1468     2.4007 C.3     
  47 C47            4.9101    -0.4642     3.7246 C.3     
  48 N48            4.6940    -1.8778     4.0632 N.3     
  49 C49            3.2597    -2.1734     4.1867 C.3     
  50 C50            2.5604    -1.8560     2.8628 C.3     
  51 C51            5.4140    -2.2410     5.2910 C.3     
  52 H52           -1.2110    -0.3750     0.2442 H       
  53 H53            0.2758    -0.5571    -0.7170 H       
  54 H54            0.1438    -0.0476     2.2901 H       
  55 H55            0.5427    -1.5987     1.5118 H       
  56 H56            2.5170    -0.5760     0.4424 H       
  57 H57            1.6899     1.9355     1.9701 H       
  58 H58            3.1525     1.7486     0.9717 H       
  59 H59            1.7469     1.3297    -1.0215 H       
  60 H60            1.3406     2.8977    -0.2839 H       
  61 H61           -5.0121     3.0536    -0.2309 H       
  62 H62           -4.0213     7.5009    -2.1422 H       
  63 H63           -5.1511    -0.6250    -2.4380 H       
  64 H64           -4.8044    -0.6777    -4.8746 H       
  65 H65           -3.4626     1.0727    -5.9666 H       
  66 H66           -2.4751     2.8867    -4.6274 H       
  67 H67           -5.9790     0.1639    -0.6830 H       
  68 H68           -4.5113    -0.8167    -0.4533 H       
  69 H69           -5.6843    -0.4523     1.7007 H       
  70 H70           -4.0844     0.3278     1.7046 H       
  71 H71           -5.5520     1.3083     1.4749 H       
  72 H72           -2.5104     4.8889    -8.0549 H       
  73 H73           -4.3443     8.6298    -7.1052 H       
  74 H74           -3.3267     8.5612    -4.8659 H       
  75 H75           -5.7055     7.9814    -8.5569 H       
  76 H76           -4.2792     8.8406    -9.1862 H       
  77 H77           -5.2645     7.8348   -10.2752 H       
  78 H78           -2.0936     3.1467    -6.9712 H       
  79 H79           -0.6678     4.0059    -7.6015 H       
  80 H80           -0.4814     2.8106    -6.2958 H       
  81 H81           -0.6812     1.4962    -1.9248 H       
  82 H82            4.6408    -0.7573     1.6067 H       
  83 H83            4.3454     0.9082     2.1621 H       
  84 H84            5.9787    -0.2731     3.6262 H       
  85 H85            4.4988     0.1657     4.5133 H       
  86 H86            3.1251    -3.2284     4.4253 H       
  87 H87            2.8297    -1.5629     4.9807 H       
  88 H88            1.4917    -2.0471     2.9612 H       
  89 H89            2.9717    -2.4859     2.0741 H       
  90 H90            5.0576    -1.6253     6.1169 H       
  91 H91            5.2368    -3.2921     5.5187 H       
  92 H92            6.4818    -2.0751     5.1486 H       
@<TRIPOS>BOND
   1    1    2 1
   2    1    6 1
   3    1   44 1
   4    2    3 1
   5    2   52 1
   6    2   53 1
   7    3    4 1
   8    3   54 1
   9    3   55 1
  10    4    5 1
  11    4   45 1
  12    4   56 1
  13    5    6 1
  14    5   57 1
  15    5   58 1
  16    6   59 1
  17    6   60 1
  18    7    8 am
  19    7   15 1
  20    7   27 am
  21    8    9 1
  22    8   16 2
  23    9   10 1
  24    9   18 1
  25    9   42 1
  26   10   11 ar
  27   10   15 ar
  28   11   12 ar
  29   11   61 1
  30   12   13 ar
  31   12   40 1
  32   13   14 ar
  33   13   17 1
  34   14   15 ar
  35   14   62 1
  36   18   19 ar
  37   18   23 ar
  38   19   20 ar
  39   19   24 1
  40   20   21 ar
  41   20   63 1
  42   21   22 ar
  43   21   64 1
  44   22   23 ar
  45   22   65 1
  46   23   66 1
  47   24   25 1
  48   25   26 1
  49   25   67 1
  50   25   68 1
  51   26   69 1
  52   26   70 1
  53   26   71 1
  54   27   28 2
  55   27   29 2
  56   27   30 1
  57   30   31 ar
  58   30   35 ar
  59   31   32 ar
  60   31   38 1
  61   32   33 ar
  62   32   72 1
  63   33   34 ar
  64   33   36 1
  65   34   35 ar
  66   34   73 1
  67   35   74 1
  68   36   37 1
  69   37   75 1
  70   37   76 1
  71   37   77 1
  72   38   39 1
  73   39   78 1
  74   39   79 1
  75   39   80 1
  76   40   41 3
  77   42   43 2
  78   42   44 am
  79   44   81 1
  80   45   46 1
  81   45   50 1
  82   46   47 1
  83   46   82 1
  84   46   83 1
  85   47   48 1
  86   47   84 1
  87   47   85 1
  88   48   49 1
  89   48   51 1
  90   49   50 1
  91   49   86 1
  92   49   87 1
  93   50   88 1
  94   50   89 1
  95   51   90 1
  96   51   91 1
  97   51   92 1

#	End of record

