#	Name: ASD02610009
#	Creating user name:	WinNT
#	Creation time:	15. 06. 2019 20:25

#	Modifying user name:	WinNT
#	Modification time:	15. 06. 2019 20:25

#	Program:	/corina/corina34_cracker 3.40 0067  02.08.2006

@<TRIPOS>MOLECULE
ASD02610009
  93   96    0    0    0
SMALL
NO_CHARGES


@<TRIPOS>ATOM
   1 C1             0.5292     0.9740    -0.1762 C.3     
   2 C2             0.7635    -0.5120    -0.5295 C.3     
   3 C3             2.0365    -0.8813     0.1908 C.2     
   4 C4             2.6981     0.1921     0.5625 C.2     
   5 C5             1.9736     1.4378     0.1397 C.3     
   6 C6             3.9922     0.1463     1.3350 C.3     
   7 C7             4.9348     1.2452     0.8429 C.3     
   8 C8             4.9944     1.6050    -0.5576 C.3     
   9 C9             3.9218     2.6430    -0.9252 C.3     
  10 C10            2.5704     2.0307    -1.1297 C.3     
  11 O11            0.9291    -0.6710    -1.9633 O.3     
  12 C12            0.5307    -1.8420    -2.4992 C.2     
  13 O13            0.0579    -2.7064    -1.7876 O.2     
  14 C14            0.6681    -2.0734    -3.9438 C.2     
  15 C15            1.2544    -1.0016    -4.8262 C.3     
  16 C16            0.2748    -3.2295    -4.4729 C.2     
  17 C17           -0.3114    -4.3013    -3.5905 C.3     
  18 C18            2.4901    -2.2949     0.4500 C.3     
  19 O19           -0.3281     1.1053     0.9883 O.3     
  20 C20           -1.6477     1.2078     0.7651 C.2     
  21 C21           -2.5996     1.3470     1.9251 C.3     
  22 O22           -2.0724     1.1885    -0.3659 O.2     
  23 H23            1.9704     2.1686     0.9483 H       
  24 O24            1.6692     3.0512    -1.6346 O.3     
  25 C25            2.6879     0.9237    -2.1793 C.3     
  26 C26            1.4236     4.0985    -0.8317 C.2     
  27 O27            4.7943     0.4126    -1.3616 O.3     
  28 C28            5.5485     0.2878    -2.4649 C.2     
  29 C29            5.3964    -0.9233    -3.3486 C.3     
  30 O30            6.3495     1.1466    -2.7494 O.2     
  31 O31            3.8158     0.4964     2.7201 O.3     
  32 C32            5.0761     1.0066     3.2048 C.3     
  33 C33            5.8519     1.5801     1.9749 C.3     
  34 H34            4.4611    -0.8324     1.2330 H       
  35 O35            3.9834     2.2528     1.1917 O.3     
  36 C36           -4.0332     1.4444     1.3996 C.3     
  37 C37           -4.9996     1.5857     2.5773 C.3     
  38 C38           -6.4332     1.6831     2.0518 C.3     
  39 C39           -7.3996     1.8244     3.2295 C.3     
  40 C40            6.3650    -0.8187    -4.5284 C.3     
  41 C41            6.2106    -2.0483    -5.4257 C.3     
  42 C42            0.5251     5.2135    -1.3014 C.3     
  43 H43            4.9322     1.7618     3.9775 H       
  44 O44            1.9228     4.1472     0.2675 O.2     
  45 O45            5.8848    -0.0936     3.6616 O.3     
  46 C46            7.2220     0.2393     3.2340 C.3     
  47 O47            7.0564     0.7878     1.9105 O.3     
  48 C48            6.1250     3.0812     2.0891 C.3     
  49 H49            7.6602     0.9818     3.9008 H       
  50 H50            7.8435    -0.6554     3.1993 H       
  51 H51            0.1193     1.5194    -1.0263 H       
  52 H52           -0.0658    -1.1226    -0.1722 H       
  53 H53            5.9788     2.0185    -0.7767 H       
  54 H54            3.8566     3.3801    -0.1249 H       
  55 H55            4.2215     3.1488    -1.8430 H       
  56 H56            2.3349    -1.1321    -4.8873 H       
  57 H57            0.8224    -1.0761    -5.8242 H       
  58 H58            1.0300    -0.0215    -4.4053 H       
  59 H59            0.3758    -3.3995    -5.5347 H       
  60 H60           -0.5727    -5.1685    -4.1970 H       
  61 H61            0.4204    -4.5920    -2.8369 H       
  62 H62           -1.2061    -3.9185    -3.0995 H       
  63 H63            1.7602    -2.9919     0.0384 H       
  64 H64            3.4574    -2.4590    -0.0250 H       
  65 H65            2.5809    -2.4561     1.5242 H       
  66 H66           -2.5094     0.4770     2.5755 H       
  67 H67           -2.3570     2.2483     2.4880 H       
  68 H68            1.7447     0.8321    -2.7180 H       
  69 H69            3.4844     1.1713    -2.8810 H       
  70 H70            2.9182    -0.0210    -1.6868 H       
  71 H71            5.6192    -1.8225    -2.7743 H       
  72 H72            4.3736    -0.9747    -3.7218 H       
  73 H73            3.8366     2.3426     2.1433 H       
  74 H74           -4.1235     2.3144     0.7491 H       
  75 H75           -4.2758     0.5431     0.8366 H       
  76 H76           -4.9094     0.7158     3.2277 H       
  77 H77           -4.7570     2.4870     3.1402 H       
  78 H78           -6.5235     2.5531     1.4013 H       
  79 H79           -6.6759     0.7818     1.4888 H       
  80 H80           -7.1570     2.7257     3.7924 H       
  81 H81           -8.4210     1.8938     2.8551 H       
  82 H82           -7.3094     0.9545     3.8799 H       
  83 H83            6.1422     0.0805    -5.1028 H       
  84 H84            7.3879    -0.7673    -4.1553 H       
  85 H85            6.4334    -2.9475    -4.8513 H       
  86 H86            5.1877    -2.0997    -5.7988 H       
  87 H87            6.9006    -1.9738    -6.2661 H       
  88 H88           -0.4645     4.8138    -1.5230 H       
  89 H89            0.4450     5.9692    -0.5200 H       
  90 H90            0.9448     5.6639    -2.2008 H       
  91 H91            5.1859     3.6099     2.2526 H       
  92 H92            6.7965     3.2656     2.9276 H       
  93 H93            6.5870     3.4375     1.1684 H       
@<TRIPOS>BOND
   1    1    2 1
   2    1    5 1
   3    1   19 1
   4    1   51 1
   5    2    3 1
   6    2   11 1
   7    2   52 1
   8    3    4 2
   9    3   18 1
  10    4    5 1
  11    4    6 1
  12    5   10 1
  13    5   23 1
  14    6    7 1
  15    6   31 1
  16    6   34 1
  17    7   33 1
  18    7   35 1
  19    7    8 1
  20    8    9 1
  21    8   27 1
  22    8   53 1
  23    9   10 1
  24    9   54 1
  25    9   55 1
  26   10   24 1
  27   10   25 1
  28   11   12 1
  29   12   13 2
  30   12   14 1
  31   14   15 1
  32   14   16 2
  33   15   56 1
  34   15   57 1
  35   15   58 1
  36   16   17 1
  37   16   59 1
  38   17   60 1
  39   17   61 1
  40   17   62 1
  41   18   63 1
  42   18   64 1
  43   18   65 1
  44   19   20 1
  45   20   21 1
  46   20   22 2
  47   21   36 1
  48   21   66 1
  49   21   67 1
  50   24   26 1
  51   25   68 1
  52   25   69 1
  53   25   70 1
  54   26   42 1
  55   26   44 2
  56   27   28 1
  57   28   29 1
  58   28   30 2
  59   29   40 1
  60   29   71 1
  61   29   72 1
  62   31   32 1
  63   32   33 1
  64   32   43 1
  65   32   45 1
  66   33   48 1
  67   33   47 1
  68   35   73 1
  69   36   37 1
  70   36   74 1
  71   36   75 1
  72   37   38 1
  73   37   76 1
  74   37   77 1
  75   38   39 1
  76   38   78 1
  77   38   79 1
  78   39   80 1
  79   39   81 1
  80   39   82 1
  81   40   41 1
  82   40   83 1
  83   40   84 1
  84   41   85 1
  85   41   86 1
  86   41   87 1
  87   42   88 1
  88   42   89 1
  89   42   90 1
  90   45   46 1
  91   46   47 1
  92   46   49 1
  93   46   50 1
  94   48   91 1
  95   48   92 1
  96   48   93 1

#	End of record

