#	Name: ASD09490009
#	Creating user name:	WinNT
#	Creation time:	15. 06. 2019 21:22

#	Modifying user name:	WinNT
#	Modification time:	15. 06. 2019 21:22

#	Program:	/corina/corina34_cracker 3.40 0067  02.08.2006

@<TRIPOS>MOLECULE
ASD09490009
  34   36    0    0    0
SMALL
NO_CHARGES


@<TRIPOS>ATOM
   1 N1            -0.0071     1.4570    -0.0839 N.am    
   2 C2             0.0188    -0.0030    -0.2024 C.3     
   3 C3            -2.0898    -4.7091    -0.4510 C.ar    
   4 C4            -3.1582    -3.8399    -0.3149 C.ar    
   5 C5            -0.7943    -4.2238    -0.4912 C.ar    
   6 C6            -2.9390    -2.4819    -0.2192 C.ar    
   7 C7            -0.5586    -2.8685    -0.3968 C.ar    
   8 C8             2.4310     5.4762    -0.4759 C.ar    
   9 C9             3.5855     6.1913    -0.3939 C.ar    
  10 C10            3.3997     3.6704     0.7855 C.ar    
  11 C11            1.1457     2.1550    -0.0988 C.2     
  12 C12            2.3205     4.2136     0.1082 C.ar    
  13 C13           -1.6329    -1.9837    -0.2595 C.ar    
  14 C14            4.6997     5.6659     0.2878 C.ar    
  15 C15            4.5768     4.3897     0.8740 C.ar    
  16 C16           -1.3902    -0.5357    -0.1585 C.2     
  17 O17           -2.3239     0.2288    -0.0400 O.2     
  18 O18            2.2074     1.5729    -0.2106 O.2     
  19 S19            6.1554     4.1074     1.6115 S.3     
  20 N20            6.7740     5.4761     1.1671 N.2     
  21 N21            5.9253     6.1566     0.5088 N.2     
  22 N22            1.1218     3.4981     0.0101 N.am    
  23 H23           -0.8543     1.9217     0.0012 H       
  24 H24            0.4837    -0.2825    -1.1478 H       
  25 H25            0.5925    -0.4243     0.6232 H       
  26 H26           -2.2677    -5.7720    -0.5213 H       
  27 H27           -4.1663    -4.2262    -0.2843 H       
  28 H28            0.0343    -4.9084    -0.5973 H       
  29 H29           -3.7738    -1.8048    -0.1137 H       
  30 H30            0.4529    -2.4913    -0.4283 H       
  31 H31            1.5837     5.8949    -0.9985 H       
  32 H32            3.6477     7.1664    -0.8542 H       
  33 H33            3.3221     2.6940     1.2405 H       
  34 H34            0.2738     3.9688     0.0206 H       
@<TRIPOS>BOND
   1    1    2 1
   2    1   11 am
   3    1   23 1
   4    2   16 1
   5    2   24 1
   6    2   25 1
   7    3    4 ar
   8    3    5 ar
   9    3   26 1
  10    4    6 ar
  11    4   27 1
  12    5    7 ar
  13    5   28 1
  14    6   13 ar
  15    6   29 1
  16    7   13 ar
  17    7   30 1
  18    8    9 ar
  19    8   12 ar
  20    8   31 1
  21    9   14 ar
  22    9   32 1
  23   10   12 ar
  24   10   15 ar
  25   10   33 1
  26   11   18 2
  27   11   22 am
  28   12   22 1
  29   13   16 1
  30   14   15 ar
  31   14   21 1
  32   15   19 1
  33   16   17 2
  34   19   20 1
  35   20   21 2
  36   22   34 1

#	End of record

