#	Name: ASD02170004
#	Creating user name:	WinNT
#	Creation time:	15. 06. 2019 20:18

#	Modifying user name:	WinNT
#	Modification time:	15. 06. 2019 20:18

#	Program:	/corina/corina34_cracker 3.40 0067  02.08.2006

@<TRIPOS>MOLECULE
ASD02170004
  32   33    0    0    0
SMALL
NO_CHARGES


@<TRIPOS>ATOM
   1 N1            -0.0167     1.3780     0.0096 N.am    
   2 C2             0.0021    -0.0041     0.0020 C.2     
   3 N3             1.0252    -0.6709     0.4665 N.2     
   4 C4             2.1685     0.0687     0.9864 C.3     
   5 C5             2.4222     1.2773     0.0762 C.3     
   6 C6             1.1485     2.0740     0.0022 C.2     
   7 N7             3.4012    -0.7201     1.0352 N.3     
   8 C8             4.4366     0.0492     1.7459 C.3     
   9 C9             4.4407     1.4864     1.3190 C.2     
  10 N10            3.5502     2.0321     0.5937 N.2     
  11 C11            5.5855     2.3487     1.7846 C.3     
  12 C12            5.4055     3.7695     1.2463 C.3     
  13 C13            6.5678     4.6451     1.7190 C.3     
  14 O14            6.8166     1.8083     1.3005 O.3     
  15 O15            4.1745     4.3100     1.7304 O.3     
  16 O16            1.1622     3.2847    -0.0619 O.2     
  17 N17           -1.0764    -0.6901    -0.5034 N.pl3   
  18 H18           -0.8635     1.8510     0.0162 H       
  19 H19            1.9416     0.4192     1.9933 H       
  20 H20            2.6752     0.9206    -0.9222 H       
  21 H21            3.2428    -1.6112     1.4812 H       
  22 H22            4.2470    -0.0037     2.8180 H       
  23 H23            5.4127    -0.3879     1.5357 H       
  24 H24            5.6027     2.3725     2.8742 H       
  25 H25            5.3883     3.7458     0.1566 H       
  26 H26            7.5069     4.2328     1.3497 H       
  27 H27            6.4396     5.6573     1.3354 H       
  28 H28            6.5850     4.6689     2.8086 H       
  29 H29            6.8716     1.7572     0.3364 H       
  30 H30            3.9945     5.2107     1.4281 H       
  31 H31           -1.8410    -0.2042    -0.8503 H       
  32 H32           -1.0729    -1.6600    -0.5132 H       
@<TRIPOS>BOND
   1    1    2 1
   2    1    6 am
   3    1   18 1
   4    2    3 2
   5    2   17 1
   6    3    4 1
   7    4    5 1
   8    4    7 1
   9    4   19 1
  10    5    6 1
  11    5   10 1
  12    5   20 1
  13    6   16 2
  14    7    8 1
  15    7   21 1
  16    8    9 1
  17    8   22 1
  18    8   23 1
  19    9   10 2
  20    9   11 1
  21   11   12 1
  22   11   14 1
  23   11   24 1
  24   12   13 1
  25   12   15 1
  26   12   25 1
  27   13   26 1
  28   13   27 1
  29   13   28 1
  30   14   29 1
  31   15   30 1
  32   17   31 1
  33   17   32 1

#	End of record

