#	Name: ASD01230571
#	Creating user name:	WinNT
#	Creation time:	15. 06. 2019 19:14

#	Modifying user name:	WinNT
#	Modification time:	15. 06. 2019 19:14

#	Program:	/corina/corina34_cracker 3.40 0067  02.08.2006

@<TRIPOS>MOLECULE
ASD01230571
  43   46    0    0    0
SMALL
NO_CHARGES


@<TRIPOS>ATOM
   1 S1             1.5442     0.5600     2.0272 S.o2    
   2 N2             1.0894    -0.8848     1.3613 N.am    
   3 C3             1.8555    -1.5418     0.5242 C.2     
   4 N4             3.0904    -1.1428     0.0993 N.pl3   
   5 C5             3.7120     0.1306     0.4724 C.3     
   6 C6             3.3605     0.4979     1.9172 C.3     
   7 C7             1.3101    -2.8177     0.0142 C.2     
   8 C8             2.0768    -3.5829    -0.8374 C.2     
   9 C9             3.3547    -3.1289    -1.1947 C.2     
  10 C10            3.8211    -1.9550    -0.7332 C.2     
  11 C11           -0.0427    -3.2677     0.4137 C.ar    
  12 C12           -0.1976    -4.4264     1.1757 C.ar    
  13 C13           -1.4588    -4.8425     1.5459 C.ar    
  14 C14           -2.5742    -4.1101     1.1613 C.ar    
  15 C15           -2.4239    -2.9565     0.4029 C.ar    
  16 C16           -1.1653    -2.5312     0.0339 C.ar    
  17 O17           -3.8157    -4.5234     1.5275 O.3     
  18 C18           -5.5217    -4.5645     3.1929 C.ar    
  19 C19           -4.3069    -4.0902     2.7182 C.ar    
  20 C20           -3.5991    -3.1651     3.4790 C.ar    
  21 C21           -4.1403    -2.7538     4.6865 C.ar    
  22 C22           -5.3558    -3.2716     5.0925 C.ar    
  23 N23           -6.0014    -4.1477     4.3476 N.ar    
  24 C24           -3.4119    -1.7540     5.5472 C.3     
  25 F25           -3.8112    -0.4595     5.1979 F       
  26 F26           -3.7150    -1.9884     6.8927 F       
  27 F27           -2.0331    -1.8858     5.3500 F       
  28 Cl28           4.3455    -4.0931    -2.2446 Cl      
  29 O29            1.0187     1.5417     1.1443 O.2     
  30 O30            1.1178     0.4801     3.3803 O.2     
  31 H31            4.7943     0.0440     0.3766 H       
  32 H32            3.3542     0.9145    -0.1951 H       
  33 H33            3.7813     1.4722     2.1656 H       
  34 H34            3.7482    -0.2598     2.5982 H       
  35 H35            1.6996    -4.5183    -1.2236 H       
  36 H36            4.8104    -1.6383    -1.0288 H       
  37 H37            0.6694    -4.9967     1.4749 H       
  38 H38           -1.5795    -5.7393     2.1354 H       
  39 H39           -3.2936    -2.3896     0.1052 H       
  40 H40           -1.0488    -1.6313    -0.5518 H       
  41 H41           -6.0816    -5.2794     2.6083 H       
  42 H42           -2.6508    -2.7774     3.1371 H       
  43 H43           -5.7825    -2.9546     6.0327 H       
@<TRIPOS>BOND
   1    1    2 am
   2    1    6 1
   3    1   29 2
   4    1   30 2
   5    2    3 2
   6    3    4 1
   7    3    7 1
   8    4    5 1
   9    4   10 1
  10    5    6 1
  11    5   31 1
  12    5   32 1
  13    6   33 1
  14    6   34 1
  15    7    8 2
  16    7   11 1
  17    8    9 1
  18    8   35 1
  19    9   10 2
  20    9   28 1
  21   10   36 1
  22   11   12 ar
  23   11   16 ar
  24   12   13 ar
  25   12   37 1
  26   13   14 ar
  27   13   38 1
  28   14   15 ar
  29   14   17 1
  30   15   16 ar
  31   15   39 1
  32   16   40 1
  33   17   19 1
  34   18   19 ar
  35   18   23 ar
  36   18   41 1
  37   19   20 ar
  38   20   21 ar
  39   20   42 1
  40   21   22 ar
  41   21   24 1
  42   22   23 ar
  43   22   43 1
  44   24   25 1
  45   24   26 1
  46   24   27 1

#	End of record

