#	Name: ASD07300363
#	Creating user name:	WinNT
#	Creation time:	15. 06. 2019 21:09

#	Modifying user name:	WinNT
#	Modification time:	15. 06. 2019 21:09

#	Program:	/corina/corina34_cracker 3.40 0067  02.08.2006

@<TRIPOS>MOLECULE
ASD07300363
  25   26    0    0    0
SMALL
NO_CHARGES


@<TRIPOS>ATOM
   1 C1            -0.0157     1.3033     0.0092 C.2     
   2 N2             0.0021    -0.0041     0.0020 N.2     
   3 C3             1.2697    -0.4250    -0.0126 C.2     
   4 C4             2.0700     0.6626    -0.0135 C.2     
   5 N5             1.2594     1.7560    -0.0005 N.pl3   
   6 C6             1.7773    -1.8456    -0.0281 C.3     
   7 C7             3.2487    -1.8295    -0.4598 C.3     
   8 C8             4.0160    -0.8009     0.3756 C.3     
   9 C9             3.5756     0.6129    -0.0247 C.3     
  10 S10           -1.4618     2.3098     0.0218 S.o2    
  11 O11           -1.0459     3.5284    -0.5794 O.2     
  12 O12           -2.4592     1.4978    -0.5823 O.2     
  13 C13           -1.8242     2.5595     1.7817 C.3     
  14 H14            1.5422     2.6839     0.0011 H       
  15 H15            1.6921    -2.2766     0.9694 H       
  16 H16            1.1939    -2.4361    -0.7346 H       
  17 H17            3.6827    -2.8177    -0.3073 H       
  18 H18            3.3148    -1.5629    -1.5146 H       
  19 H19            3.8053    -0.9615     1.4329 H       
  20 H20            5.0855    -0.9127     0.1970 H       
  21 H21            3.9431     0.8424    -1.0249 H       
  22 H22            3.9721     1.3364     0.6876 H       
  23 H23           -0.9793     3.0551     2.2598 H       
  24 H24           -2.7149     3.1793     1.8848 H       
  25 H25           -1.9961     1.5941     2.2577 H       
@<TRIPOS>BOND
   1    1    2 2
   2    1    5 1
   3    1   10 1
   4    2    3 1
   5    3    4 2
   6    3    6 1
   7    4    5 1
   8    4    9 1
   9    5   14 1
  10    6    7 1
  11    6   15 1
  12    6   16 1
  13    7    8 1
  14    7   17 1
  15    7   18 1
  16    8    9 1
  17    8   19 1
  18    8   20 1
  19    9   21 1
  20    9   22 1
  21   10   11 2
  22   10   12 2
  23   10   13 1
  24   13   23 1
  25   13   24 1
  26   13   25 1

#	End of record

