#	Name: ASD08150654
#	Creating user name:	WinNT
#	Creation time:	15. 06. 2019 21:16

#	Modifying user name:	WinNT
#	Modification time:	15. 06. 2019 21:16

#	Program:	/corina/corina34_cracker 3.40 0067  02.08.2006

@<TRIPOS>MOLECULE
ASD08150654
  83   89    0    0    0
SMALL
NO_CHARGES


@<TRIPOS>ATOM
   1 N1            -0.3383     0.1654    -0.7180 N.am    
   2 C2             0.8545     0.7486    -0.4906 C.2     
   3 C3             2.0066    -0.0283    -0.2548 C.2     
   4 C4             1.9283    -1.3837    -0.2542 C.2     
   5 C5             0.6750    -2.0003    -0.4930 C.ar    
   6 C6             0.5383    -3.4017    -0.5029 C.ar    
   7 N7            -0.6193    -3.9679    -0.7235 N.ar    
   8 C8            -1.7343    -3.2570    -0.9509 C.ar    
   9 C9            -1.6905    -1.8411    -0.9590 C.ar    
  10 C10           -0.4528    -1.1972    -0.7240 C.ar    
  11 C11           -2.8579    -1.1095    -1.1979 C.ar    
  12 C12           -4.0488    -1.7801    -1.4249 C.ar    
  13 C13           -4.0845    -3.1814    -1.4149 C.ar    
  14 C14           -2.9575    -3.9068    -1.1839 C.ar    
  15 O15            0.9388     1.9651    -0.4893 O.2     
  16 C16           -5.2919    -1.0118    -1.6791 C.ar    
  17 C17           -1.4708     0.9606    -0.9442 C.ar    
  18 C18           -2.1387     1.5382     0.1264 C.ar    
  19 C19           -3.2537     2.3219    -0.0955 C.ar    
  20 C20           -3.7096     2.5341    -1.3909 C.ar    
  21 C21           -3.0444     1.9581    -2.4650 C.ar    
  22 C22           -1.9229     1.1762    -2.2446 C.ar    
  23 N23           -4.8389     3.3274    -1.6128 N.3     
  24 C24           -6.2582    -1.4987    -2.5659 C.ar    
  25 C25           -7.3998    -0.7474    -2.7705 C.ar    
  26 C26           -7.5498     0.4574    -2.0944 C.ar    
  27 N27           -6.6169     0.8902    -1.2619 N.ar    
  28 C28           -5.5164     0.2018    -1.0342 C.ar    
  29 C29           -4.6749     4.1512    -2.8173 C.3     
  30 C30           -5.1380     4.1572    -0.4387 C.3     
  31 C31           -6.4571     4.9007    -0.6606 C.3     
  32 C32           -6.3397     5.7763    -1.9112 C.3     
  33 C33           -5.9802     4.8945    -3.1102 C.3     
  34 N34           -7.6219     6.4477    -2.1625 N.3     
  35 C35           -7.5194     7.3685    -3.3018 C.3     
  36 C36           -8.9026     7.9379    -3.6253 C.3     
  37 C37           -9.4461     8.6739    -2.3975 C.3     
  38 C38           -9.4973     7.7053    -1.2127 C.3     
  39 C39           -8.0969     7.1426    -0.9592 C.3     
  40 O40           -1.2667     0.6158    -3.2950 O.3     
  41 C41           -1.7863     0.8795    -4.5999 C.3     
  42 C42           -0.9231     0.1706    -5.6454 C.3     
  43 O43           -8.6679     1.2002    -2.2909 O.3     
  44 C44           -8.7538     2.4415    -1.5883 C.3     
  45 H45            2.9549     0.4561    -0.0743 H       
  46 H46            2.8084    -1.9832    -0.0746 H       
  47 H47            1.4056    -4.0202    -0.3252 H       
  48 H48           -2.8315    -0.0299    -1.2051 H       
  49 H49           -5.0195    -3.6919    -1.5925 H       
  50 H50           -3.0031    -4.9858    -1.1801 H       
  51 H51           -1.7863     1.3744     1.1340 H       
  52 H52           -3.7724     2.7703     0.7389 H       
  53 H53           -3.3990     2.1231    -3.4717 H       
  54 H54           -6.1152    -2.4386    -3.0784 H       
  55 H55           -8.1665    -1.0925    -3.4484 H       
  56 H56           -4.7772     0.5870    -0.3475 H       
  57 H57           -3.8739     4.8730    -2.6574 H       
  58 H58           -4.4236     3.5115    -3.6633 H       
  59 H59           -5.2230     3.5218     0.4429 H       
  60 H60           -4.3349     4.8789    -0.2899 H       
  61 H61           -7.2631     4.1794    -0.7957 H       
  62 H62           -6.6710     5.5284     0.2045 H       
  63 H63           -5.5598     6.5229    -1.7612 H       
  64 H64           -5.8533     5.5179    -3.9953 H       
  65 H65           -6.7787     4.1732    -3.2838 H       
  66 H66           -6.8409     8.1836    -3.0501 H       
  67 H67           -7.1357     6.8315    -4.1693 H       
  68 H68           -8.8235     8.6332    -4.4610 H       
  69 H69           -9.5780     7.1245    -3.8905 H       
  70 H70           -8.7915     9.5112    -2.1554 H       
  71 H71          -10.4492     9.0440    -2.6091 H       
  72 H72           -9.8431     8.2344    -0.3248 H       
  73 H73          -10.1821     6.8883    -1.4400 H       
  74 H74           -8.1326     6.4416    -0.1253 H       
  75 H75           -7.4157     7.9588    -0.7185 H       
  76 H76           -2.8104     0.5117    -4.6643 H       
  77 H77           -1.7736     1.9535    -4.7858 H       
  78 H78           -0.9358    -0.9033    -5.4594 H       
  79 H79           -1.3194     0.3718    -6.6407 H       
  80 H80            0.1010     0.5384    -5.5809 H       
  81 H81           -8.6019     2.2674    -0.5231 H       
  82 H82           -7.9871     3.1222    -1.9582 H       
  83 H83           -9.7381     2.8819    -1.7478 H       
@<TRIPOS>BOND
   1    1    2 am
   2    1   10 1
   3    1   17 1
   4    2    3 1
   5    2   15 2
   6    3    4 2
   7    3   45 1
   8    4    5 1
   9    4   46 1
  10    5    6 ar
  11    5   10 ar
  12    6    7 ar
  13    6   47 1
  14    7    8 ar
  15    8    9 ar
  16    8   14 ar
  17    9   10 ar
  18    9   11 ar
  19   11   12 ar
  20   11   48 1
  21   12   13 ar
  22   12   16 1
  23   13   14 ar
  24   13   49 1
  25   14   50 1
  26   16   24 ar
  27   16   28 ar
  28   17   18 ar
  29   17   22 ar
  30   18   19 ar
  31   18   51 1
  32   19   20 ar
  33   19   52 1
  34   20   21 ar
  35   20   23 1
  36   21   22 ar
  37   21   53 1
  38   22   40 1
  39   23   30 1
  40   23   29 1
  41   24   25 ar
  42   24   54 1
  43   25   26 ar
  44   25   55 1
  45   26   27 ar
  46   26   43 1
  47   27   28 ar
  48   28   56 1
  49   29   33 1
  50   29   57 1
  51   29   58 1
  52   30   31 1
  53   30   59 1
  54   30   60 1
  55   31   32 1
  56   31   61 1
  57   31   62 1
  58   32   33 1
  59   32   34 1
  60   32   63 1
  61   33   64 1
  62   33   65 1
  63   34   35 1
  64   34   39 1
  65   35   36 1
  66   35   66 1
  67   35   67 1
  68   36   37 1
  69   36   68 1
  70   36   69 1
  71   37   38 1
  72   37   70 1
  73   37   71 1
  74   38   39 1
  75   38   72 1
  76   38   73 1
  77   39   74 1
  78   39   75 1
  79   40   41 1
  80   41   42 1
  81   41   76 1
  82   41   77 1
  83   42   78 1
  84   42   79 1
  85   42   80 1
  86   43   44 1
  87   44   81 1
  88   44   82 1
  89   44   83 1

#	End of record

