#	Name: ASD01810007
#	Creating user name:	WinNT
#	Creation time:	15. 06. 2019 19:23

#	Modifying user name:	WinNT
#	Modification time:	15. 06. 2019 19:23

#	Program:	/corina/corina34_cracker 3.40 0067  02.08.2006

@<TRIPOS>MOLECULE
ASD01810007
  41   45    0    0    0
SMALL
NO_CHARGES


@<TRIPOS>ATOM
   1 N1            -0.0163     1.3478     0.0095 N.am    
   2 C2             0.0021    -0.0041     0.0020 C.2     
   3 C3            -1.2676    -0.7370    -0.3571 C.3     
   4 C4            -2.5159    -0.1237     0.2726 C.3     
   5 C5            -2.5121     1.3732     0.1209 C.ar    
   6 C6            -1.2658     1.9810     0.0315 C.ar    
   7 C7            -3.6300     2.1617     0.0681 C.ar    
   8 C8            -3.5029     3.5491    -0.0490 C.ar    
   9 C9            -2.2637     4.1484    -0.0993 C.ar    
  10 C10           -1.1109     3.3586    -0.0514 C.ar    
  11 C11            0.9572     2.3082     0.0053 C.ar    
  12 C12            0.3363     3.5840    -0.0414 C.ar    
  13 C13            1.0874     4.7574    -0.0669 C.ar    
  14 C14            2.4702     4.6239    -0.0384 C.ar    
  15 C15            3.0779     3.3780     0.0133 C.ar    
  16 C16            2.3466     2.2035     0.0381 C.ar    
  17 C17           -4.7726     4.3586    -0.1237 C.3     
  18 N18           -4.5079     5.7659     0.1880 N.3     
  19 C19           -3.4194     6.2789    -0.6592 C.3     
  20 C20           -2.1079     5.6435    -0.1978 C.3     
  21 O21            1.0140    -0.6129     0.2768 O.2     
  22 O22            3.2457     5.7405    -0.0623 O.3     
  23 C23            4.6613     5.5480    -0.0314 C.3     
  24 H24           -1.3821    -0.7284    -1.4411 H       
  25 H25           -1.1804    -1.7716    -0.0252 H       
  26 H26           -3.4010    -0.5312    -0.2159 H       
  27 H27           -2.5439    -0.3765     1.3325 H       
  28 H28           -4.6106     1.7117     0.1165 H       
  29 H29            0.6155     5.7280    -0.1073 H       
  30 H30            4.1562     3.3230     0.0362 H       
  31 H31            2.8345     1.2409     0.0790 H       
  32 H32           -5.1867     4.2853    -1.1293 H       
  33 H33           -5.4940     3.9621     0.5908 H       
  34 H34           -5.3423     6.3230     0.0815 H       
  35 H35           -3.6089     6.0152    -1.6997 H       
  36 H36           -3.3570     7.3626    -0.5603 H       
  37 H37           -1.8364     6.0437     0.7791 H       
  38 H38           -1.3207     5.8785    -0.9141 H       
  39 H39            4.9363     5.0199     0.8817 H       
  40 H40            4.9671     4.9605    -0.8970 H       
  41 H41            5.1603     6.5168    -0.0551 H       
@<TRIPOS>BOND
   1    1    2 am
   2    1   11 1
   3    1    6 1
   4    2    3 1
   5    2   21 2
   6    3    4 1
   7    3   24 1
   8    3   25 1
   9    4    5 1
  10    4   26 1
  11    4   27 1
  12    5    6 ar
  13    5    7 ar
  14    6   10 ar
  15    7    8 ar
  16    7   28 1
  17    8    9 ar
  18    8   17 1
  19    9   10 ar
  20    9   20 1
  21   10   12 1
  22   11   12 ar
  23   11   16 ar
  24   12   13 ar
  25   13   14 ar
  26   13   29 1
  27   14   15 ar
  28   14   22 1
  29   15   16 ar
  30   15   30 1
  31   16   31 1
  32   17   18 1
  33   17   32 1
  34   17   33 1
  35   18   19 1
  36   18   34 1
  37   19   20 1
  38   19   35 1
  39   19   36 1
  40   20   37 1
  41   20   38 1
  42   22   23 1
  43   23   39 1
  44   23   40 1
  45   23   41 1

#	End of record

