#	Name: ASD06610065
#	Creating user name:	WinNT
#	Creation time:	15. 06. 2019 21:07

#	Modifying user name:	WinNT
#	Modification time:	15. 06. 2019 21:07

#	Program:	/corina/corina34_cracker 3.40 0067  02.08.2006

@<TRIPOS>MOLECULE
ASD06610065
 275  275    0    0    0
SMALL
NO_CHARGES


@<TRIPOS>ATOM
   1 C1           -12.8335     9.5801    10.4139 C.2     
   2 O2           -12.9175     8.6610    11.2008 O.2     
   3 N3           -11.4492    10.6681    12.0840 N.am    
   4 C4           -11.8902    10.7229    10.6880 C.3     
   5 C5           -10.6751    10.6139     9.7646 C.3     
   6 C6            -9.7798    11.8402     9.9529 C.3     
   7 C7            -9.8859     9.3488    10.1075 C.3     
   8 C8           -14.6429     8.3588     7.4817 C.2     
   9 O9           -14.5246     9.3623     6.8110 O.2     
  10 N10          -13.5798     9.5767     9.2916 N.am    
  11 C11          -14.4139     8.4160     8.9701 C.3     
  12 C12          -15.7590     8.5399     9.6887 C.3     
  13 C13          -15.5354     8.4915    11.2015 C.3     
  14 C14          -16.8804     8.6154    11.9201 C.3     
  15 N15          -16.6663     8.5691    13.3686 N.pl3   
  16 C16          -17.7376     8.6629    14.2252 C.2     
  17 N17          -17.5471     8.6217    15.5140 N.2     
  18 N18          -19.0098     8.8001    13.7224 N.pl3   
  19 C19          -16.4892     7.8660     5.1055 C.2     
  20 O20          -17.0173     8.5643     5.9448 O.2     
  21 N21          -14.9793     7.1925     6.8960 N.am    
  22 C22          -15.3047     7.0104     5.4739 C.3     
  23 C23          -15.6500     5.5201     5.2701 C.3     
  24 C24          -16.0496     5.0578     6.6962 C.3     
  25 C25          -15.0755     5.8869     7.5740 C.3     
  26 C26          -18.8153     8.0871     2.2942 C.2     
  27 O27          -18.2979     7.1787     1.6795 O.2     
  28 N28          -16.9619     7.8552     3.8434 N.am    
  29 C29          -18.1134     8.6869     3.4853 C.3     
  30 C30          -17.6350    10.0981     3.1380 C.3     
  31 C31          -17.0261    10.7505     4.3808 C.3     
  32 C32          -16.5792    10.0212     2.0333 C.3     
  33 C33          -21.6019     9.0911     0.1517 C.2     
  34 O34          -21.7393    10.1478     0.7308 O.2     
  35 N35          -20.0181     8.5603     1.9121 N.am    
  36 C36          -20.6497     8.0548     0.6907 C.3     
  37 C37          -21.4193     6.7712     1.0082 C.3     
  38 C38          -24.6076     9.5516    -0.7167 C.2     
  39 O39          -24.6854     8.6605     0.1023 O.2     
  40 N40          -22.3007     8.8435    -0.9739 N.am    
  41 C41          -23.3075     9.8019    -1.4366 C.3     
  42 C42          -23.5179     9.6332    -2.9427 C.3     
  43 C43          -22.2459     9.9854    -3.6701 C.2     
  44 O44          -21.2460    10.2643    -3.0429 O.2     
  45 N45          -22.2195     9.9906    -5.0176 N.am    
  46 C46          -28.0924    10.5777    -1.1242 C.2     
  47 O47          -27.8742    11.0890    -2.2021 O.2     
  48 N48          -25.6837    10.3180    -0.9830 N.am    
  49 C49          -26.9475    10.0747    -0.2832 C.3     
  50 C50          -26.9379    10.8112     1.0579 C.3     
  51 C51          -31.6433    11.2748    -0.6063 C.2     
  52 O52          -31.5570    11.1150     0.5928 O.2     
  53 N53          -29.3588    10.4593    -0.6786 N.am    
  54 C54          -30.4718    10.9482    -1.4962 C.3     
  55 C55          -30.8797     9.8684    -2.5005 C.3     
  56 C56          -29.7320     9.6257    -3.4827 C.3     
  57 C57          -30.1399     8.5459    -4.4870 C.3     
  58 N58          -29.0409     8.3135    -5.4274 N.pl3   
  59 C59          -29.1777     7.3800    -6.4274 C.2     
  60 N60          -30.2852     6.7017    -6.5387 N.2     
  61 N61          -28.1464     7.1619    -7.3100 N.pl3   
  62 C62          -35.2024    11.9662    -1.0727 C.2     
  63 O63          -35.1648    11.6624    -2.2462 O.2     
  64 N64          -32.7869    11.7446    -1.1430 N.am    
  65 C65          -33.9257    12.0622    -0.2778 C.3     
  66 C66          -33.7706    13.4829     0.2685 C.3     
  67 C67          -32.5414    13.5486     1.1771 C.3     
  68 C68          -32.3139    14.9942     1.6235 C.3     
  69 C69          -32.7674    12.6650     2.4055 C.3     
  70 C70          -38.6801    12.9974    -0.6188 C.2     
  71 O71          -38.4193    13.6346     0.3796 O.2     
  72 N72          -36.3861    12.2179    -0.4794 N.am    
  73 C73          -37.6273    12.1246    -1.2520 C.3     
  74 C74          -38.1103    10.6729    -1.2678 C.3     
  75 C75          -37.0985     9.8070    -2.0211 C.3     
  76 C76          -37.5815     8.3553    -2.0369 C.3     
  77 N77          -36.6127     7.5261    -2.7581 N.pl3   
  78 C78          -36.8352     6.1771    -2.9023 C.2     
  79 N79          -37.9080     5.6358    -2.3973 N.2     
  80 N80          -35.9260     5.3990    -3.5791 N.pl3   
  81 C81          -42.2875    13.4765    -0.8831 C.2     
  82 O82          -42.4882    12.7559    -1.8378 O.2     
  83 N83          -39.9114    13.0698    -1.1620 N.am    
  84 C84          -40.9006    14.0005    -0.6129 C.3     
  85 C85          -40.7349    15.3699    -1.2749 C.3     
  86 C86          -41.7094    16.3643    -0.6404 C.3     
  87 C87          -41.3432    16.5691     0.8309 C.3     
  88 C88          -41.6251    17.7021    -1.3780 C.3     
  89 C89          -45.6594    14.2925     0.2689 C.2     
  90 O90          -45.2707    15.2484     0.9062 O.2     
  91 N91          -43.3048    13.8086    -0.0638 N.am    
  92 C92          -44.6647    13.3531    -0.3628 C.3     
  93 C93          -44.8658    11.9442     0.1990 C.3     
  94 C94          -43.9420    10.9674    -0.5312 C.3     
  95 C95          -44.0513     9.5838     0.1128 C.3     
  96 C96          -44.3535    10.8791    -2.0022 C.3     
  97 C97          -48.1819    14.5785     2.1725 C.2     
  98 O98          -47.6005    13.6247     2.6332 O.2     
  99 N99          -46.9810    14.0704     0.1258 N.am    
 100 C100         -47.9480    14.9836     0.7399 C.3     
 101 C101         -49.2688    14.9210    -0.0299 C.3     
 102 C102         -49.0571    15.4506    -1.4496 C.3     
 103 C103         -50.3443    15.2728    -2.2574 C.3     
 104 C104         -48.6928    16.9354    -1.3911 C.3     
 105 O105         -49.0361    15.2771     2.9367 O.3     
 106 C106         -11.0382    11.7911    12.7055 C.2     
 107 O107         -11.0335    12.8472    12.1091 O.2     
 108 C108          -4.4855    21.1338    27.5704 C.3     
 109 C109          -4.9460    21.1911    26.1124 C.3     
 110 C110          -5.3568    19.7910    25.6519 C.3     
 111 C111          -5.8173    19.8484    24.1940 C.3     
 112 C112          -6.2281    18.4483    23.7335 C.3     
 113 C113          -6.6886    18.5056    22.2756 C.3     
 114 C114          -7.0994    17.1056    21.8151 C.3     
 115 C115          -7.5599    17.1629    20.3572 C.3     
 116 C116          -7.9707    15.7629    19.8967 C.3     
 117 C117          -8.4312    15.8202    18.4388 C.3     
 118 C118          -8.8420    14.4201    17.9783 C.3     
 119 C119          -9.3025    14.4774    16.5204 C.3     
 120 C120          -9.7133    13.0774    16.0599 C.3     
 121 C121         -10.1738    13.1347    14.6020 C.3     
 122 C122         -10.5846    11.7347    14.1415 C.3     
 123 H123         -11.4530     9.8234    12.5609 H       
 124 H124         -12.4016    11.6680    10.5054 H       
 125 H125         -11.0095    10.5639     8.7284 H       
 126 H126          -9.3501    11.8260    10.9546 H       
 127 H127          -8.9790    11.8224     9.2137 H       
 128 H128         -10.3725    12.7460     9.8247 H       
 129 H129         -10.5237     8.4751     9.9733 H       
 130 H130          -9.0203     9.2711     9.4497 H       
 131 H131          -9.5515     9.3988    11.1437 H       
 132 H132         -13.5647    10.3427     8.6967 H       
 133 H133         -13.9106     7.5056     9.2956 H       
 134 H134         -16.2282     9.4866     9.4209 H       
 135 H135         -16.4073     7.7159     9.3907 H       
 136 H136         -15.0662     7.5448    11.4693 H       
 137 H137         -14.8870     9.3155    11.4995 H       
 138 H138         -17.3497     9.5620    11.6522 H       
 139 H139         -17.5288     7.7914    11.6221 H       
 140 H140         -15.7687     8.4722    13.7234 H       
 141 H141         -18.3029     8.6878    16.1183 H       
 142 H142         -19.1516     8.8308    12.7633 H       
 143 H143         -19.7656     8.8663    14.3267 H       
 144 H144         -14.4462     7.2817     4.8595 H       
 145 H145         -16.4865     5.4089     4.5801 H       
 146 H146         -14.7799     4.9677     4.9152 H       
 147 H147         -17.0875     5.3109     6.9125 H       
 148 H148         -15.8748     3.9895     6.8240 H       
 149 H149         -14.0973     5.4079     7.6154 H       
 150 H150         -15.4815     6.0099     8.5780 H       
 151 H151         -16.5395     7.2966     3.1721 H       
 152 H152         -18.8034     8.7343     4.3277 H       
 153 H153         -18.4800    10.6934     2.7921 H       
 154 H154         -16.1502    10.1838     4.6964 H       
 155 H155         -16.7320    11.7737     4.1469 H       
 156 H156         -17.7625    10.7588     5.1844 H       
 157 H157         -17.0130     9.5564     1.1479 H       
 158 H158         -16.2384    11.0265     1.7859 H       
 159 H159         -15.7342     9.4259     2.3791 H       
 160 H160         -20.4655     9.2355     2.4457 H       
 161 H161         -19.8827     7.8437    -0.0544 H       
 162 H162         -22.1863     6.9823     1.7533 H       
 163 H163         -21.8893     6.3951     0.0995 H       
 164 H164         -20.7306     6.0216     1.3981 H       
 165 H165         -22.1370     8.0309    -1.4775 H       
 166 H166         -22.9665    10.8160    -1.2287 H       
 167 H167         -23.7854     8.5989    -3.1586 H       
 168 H168         -24.3202    10.2927    -3.2736 H       
 169 H169         -23.0192     9.7675    -5.5192 H       
 170 H170         -21.4008    10.2173    -5.4858 H       
 171 H171         -25.6215    11.0307    -1.6380 H       
 172 H172         -27.0667     9.0053    -0.1095 H       
 173 H173         -27.8782    10.6302     1.5786 H       
 174 H174         -26.1098    10.4474     1.6662 H       
 175 H175         -26.8188    11.8806     0.8843 H       
 176 H176         -29.5334    10.0503     0.1835 H       
 177 H177         -30.1619    11.8450    -2.0327 H       
 178 H178         -31.1045     8.9439    -1.9687 H       
 179 H179         -31.7632    10.1966    -3.0480 H       
 180 H180         -29.5072    10.5502    -4.0145 H       
 181 H181         -28.8485     9.2975    -2.9351 H       
 182 H182         -30.3647     7.6214    -3.9551 H       
 183 H183         -31.0234     8.8741    -5.0345 H       
 184 H184         -28.2168     8.8183    -5.3446 H       
 185 H185         -30.3817     6.0431    -7.2442 H       
 186 H186         -27.3223     7.6667    -7.2272 H       
 187 H187         -28.2430     6.5033    -8.0155 H       
 188 H188         -32.8558    11.8725    -2.1020 H       
 189 H189         -33.9600    11.3557     0.5515 H       
 190 H190         -33.6472    14.1795    -0.5607 H       
 191 H191         -34.6593    13.7516     0.8395 H       
 192 H192         -31.6667    13.1950     0.6312 H       
 193 H193         -33.1885    15.3478     2.1695 H       
 194 H194         -31.4382    15.0410     2.2708 H       
 195 H195         -32.1528    15.6237     0.7484 H       
 196 H196         -33.6421    13.0186     2.9514 H       
 197 H197         -32.9295    11.6351     2.0875 H       
 198 H198         -31.8917    12.7118     3.0528 H       
 199 H199         -36.4162    12.4608     0.4592 H       
 200 H200         -37.4452    12.4581    -2.2737 H       
 201 H201         -38.2073    10.3111    -0.2442 H       
 202 H202         -39.0782    10.6174    -1.7661 H       
 203 H203         -37.0015    10.1687    -3.0447 H       
 204 H204         -36.1307     9.8624    -1.5228 H       
 205 H205         -37.6785     7.9935    -1.0132 H       
 206 H206         -38.5494     8.2998    -2.5351 H       
 207 H207         -35.8143     7.9289    -3.1339 H       
 208 H208         -38.0650     4.6840    -2.4991 H       
 209 H209         -35.1276     5.8018    -3.9549 H       
 210 H210         -36.0830     4.4472    -3.6809 H       
 211 H211         -40.1426    12.5057    -1.9165 H       
 212 H212         -40.7516    14.0964     0.4626 H       
 213 H213         -39.7130    15.7212    -1.1321 H       
 214 H214         -40.9445    15.2858    -2.3412 H       
 215 H215         -42.7245    15.9737    -0.7112 H       
 216 H216         -42.0686    17.2364     1.2964 H       
 217 H217         -41.3519    15.6078     1.3447 H       
 218 H218         -40.3483    17.0090     0.8999 H       
 219 H219         -41.8860    17.5562    -2.4262 H       
 220 H220         -42.3194    18.4106    -0.9260 H       
 221 H221         -40.6100    18.0928    -1.3072 H       
 222 H222         -43.1366    14.3492     0.7238 H       
 223 H223         -44.8139    13.3384    -1.4425 H       
 224 H224         -44.6303    11.9404     1.2632 H       
 225 H225         -45.9026    11.6403     0.0552 H       
 226 H226         -42.9129    11.3200    -0.4624 H       
 227 H227         -45.0803     9.2312     0.0439 H       
 228 H228         -43.3931     8.8879    -0.4074 H       
 229 H229         -43.7581     9.6467     1.1608 H       
 230 H230         -45.3826    10.5265    -2.0711 H       
 231 H231         -44.2756    11.8647    -2.4611 H       
 232 H232         -43.6953    10.1831    -2.5225 H       
 233 H233         -47.2920    13.3059    -0.3839 H       
 234 H234         -47.5574    16.0008     0.7092 H       
 235 H235         -49.6144    13.8883    -0.0751 H       
 236 H236         -50.0148    15.5319     0.4783 H       
 237 H237         -48.2490    14.8967    -1.9273 H       
 238 H238         -51.1525    15.8267    -1.7797 H       
 239 H239         -50.1935    15.6501    -3.2689 H       
 240 H240         -50.6039    14.2150    -2.2991 H       
 241 H241         -49.5009    17.4893    -0.9134 H       
 242 H242         -47.7758    17.0621    -0.8156 H       
 243 H243         -48.5420    17.3127    -2.4025 H       
 244 H244         -49.1533    14.9792     3.8491 H       
 245 H245          -5.3014    20.7706    28.1952 H       
 246 H246          -3.6340    20.4587    27.6561 H       
 247 H247          -4.1928    22.1312    27.8984 H       
 248 H248          -5.7975    21.8662    26.0267 H       
 249 H249          -4.1300    21.5543    25.4876 H       
 250 H250          -4.5053    19.1160    25.7377 H       
 251 H251          -6.1728    19.4279    26.2767 H       
 252 H252          -6.6688    20.5234    24.1083 H       
 253 H253          -5.0013    20.2115    23.5692 H       
 254 H254          -5.3766    17.7732    23.8193 H       
 255 H255          -7.0441    18.0851    24.3583 H       
 256 H256          -7.5401    19.1807    22.1898 H       
 257 H257          -5.8726    18.8688    21.6508 H       
 258 H258          -6.2479    16.4305    21.9009 H       
 259 H259          -7.9154    16.7424    22.4399 H       
 260 H260          -8.4114    17.8380    20.2714 H       
 261 H261          -6.7439    17.5261    19.7324 H       
 262 H262          -7.1192    15.0878    19.9825 H       
 263 H263          -8.7867    15.3997    20.5215 H       
 264 H264          -9.2827    16.4952    18.3530 H       
 265 H265          -7.6152    16.1833    17.8140 H       
 266 H266          -7.9905    13.7450    18.0641 H       
 267 H267          -9.6580    14.0570    18.6031 H       
 268 H268         -10.1540    15.1525    16.4346 H       
 269 H269          -8.4865    14.8406    15.8956 H       
 270 H270          -8.8618    12.4023    16.1457 H       
 271 H271         -10.5293    12.7142    16.6847 H       
 272 H272         -11.0253    13.8098    14.5162 H       
 273 H273          -9.3579    13.4979    13.9772 H       
 274 H274         -11.4006    11.3715    14.7663 H       
 275 H275          -9.7331    11.0596    14.2272 H       
@<TRIPOS>BOND
   1    1    2 2
   2    1    4 1
   3    1   10 am
   4    3  106 am
   5    3    4 1
   6    3  123 1
   7    4    5 1
   8    4  124 1
   9    5    6 1
  10    5    7 1
  11    5  125 1
  12    6  126 1
  13    6  127 1
  14    6  128 1
  15    7  129 1
  16    7  130 1
  17    7  131 1
  18    8    9 2
  19    8   11 1
  20    8   21 am
  21   10   11 1
  22   10  132 1
  23   11   12 1
  24   11  133 1
  25   12   13 1
  26   12  134 1
  27   12  135 1
  28   13   14 1
  29   13  136 1
  30   13  137 1
  31   14   15 1
  32   14  138 1
  33   14  139 1
  34   15   16 1
  35   15  140 1
  36   16   17 2
  37   16   18 1
  38   17  141 1
  39   18  142 1
  40   18  143 1
  41   19   20 2
  42   19   28 am
  43   19   22 1
  44   21   22 1
  45   21   25 1
  46   22   23 1
  47   22  144 1
  48   23   24 1
  49   23  145 1
  50   23  146 1
  51   24   25 1
  52   24  147 1
  53   24  148 1
  54   25  149 1
  55   25  150 1
  56   26   27 2
  57   26   29 1
  58   26   35 am
  59   28   29 1
  60   28  151 1
  61   29   30 1
  62   29  152 1
  63   30   31 1
  64   30   32 1
  65   30  153 1
  66   31  154 1
  67   31  155 1
  68   31  156 1
  69   32  157 1
  70   32  158 1
  71   32  159 1
  72   33   34 2
  73   33   36 1
  74   33   40 am
  75   35   36 1
  76   35  160 1
  77   36   37 1
  78   36  161 1
  79   37  162 1
  80   37  163 1
  81   37  164 1
  82   38   39 2
  83   38   41 1
  84   38   48 am
  85   40   41 1
  86   40  165 1
  87   41   42 1
  88   41  166 1
  89   42   43 1
  90   42  167 1
  91   42  168 1
  92   43   44 2
  93   43   45 am
  94   45  169 1
  95   45  170 1
  96   46   47 2
  97   46   49 1
  98   46   53 am
  99   48   49 1
 100   48  171 1
 101   49   50 1
 102   49  172 1
 103   50  173 1
 104   50  174 1
 105   50  175 1
 106   51   52 2
 107   51   54 1
 108   51   64 am
 109   53   54 1
 110   53  176 1
 111   54   55 1
 112   54  177 1
 113   55   56 1
 114   55  178 1
 115   55  179 1
 116   56   57 1
 117   56  180 1
 118   56  181 1
 119   57   58 1
 120   57  182 1
 121   57  183 1
 122   58   59 1
 123   58  184 1
 124   59   60 2
 125   59   61 1
 126   60  185 1
 127   61  186 1
 128   61  187 1
 129   62   63 2
 130   62   65 1
 131   62   72 am
 132   64   65 1
 133   64  188 1
 134   65   66 1
 135   65  189 1
 136   66   67 1
 137   66  190 1
 138   66  191 1
 139   67   68 1
 140   67   69 1
 141   67  192 1
 142   68  193 1
 143   68  194 1
 144   68  195 1
 145   69  196 1
 146   69  197 1
 147   69  198 1
 148   70   71 2
 149   70   73 1
 150   70   83 am
 151   72   73 1
 152   72  199 1
 153   73   74 1
 154   73  200 1
 155   74   75 1
 156   74  201 1
 157   74  202 1
 158   75   76 1
 159   75  203 1
 160   75  204 1
 161   76   77 1
 162   76  205 1
 163   76  206 1
 164   77   78 1
 165   77  207 1
 166   78   79 2
 167   78   80 1
 168   79  208 1
 169   80  209 1
 170   80  210 1
 171   81   82 2
 172   81   84 1
 173   81   91 am
 174   83   84 1
 175   83  211 1
 176   84   85 1
 177   84  212 1
 178   85   86 1
 179   85  213 1
 180   85  214 1
 181   86   87 1
 182   86   88 1
 183   86  215 1
 184   87  216 1
 185   87  217 1
 186   87  218 1
 187   88  219 1
 188   88  220 1
 189   88  221 1
 190   89   90 2
 191   89   92 1
 192   89   99 am
 193   91   92 1
 194   91  222 1
 195   92   93 1
 196   92  223 1
 197   93   94 1
 198   93  224 1
 199   93  225 1
 200   94   95 1
 201   94   96 1
 202   94  226 1
 203   95  227 1
 204   95  228 1
 205   95  229 1
 206   96  230 1
 207   96  231 1
 208   96  232 1
 209   97   98 2
 210   97  100 1
 211   97  105 1
 212   99  100 1
 213   99  233 1
 214  100  101 1
 215  100  234 1
 216  101  102 1
 217  101  235 1
 218  101  236 1
 219  102  103 1
 220  102  104 1
 221  102  237 1
 222  103  238 1
 223  103  239 1
 224  103  240 1
 225  104  241 1
 226  104  242 1
 227  104  243 1
 228  105  244 1
 229  106  107 2
 230  106  122 1
 231  108  109 1
 232  108  245 1
 233  108  246 1
 234  108  247 1
 235  109  110 1
 236  109  248 1
 237  109  249 1
 238  110  111 1
 239  110  250 1
 240  110  251 1
 241  111  112 1
 242  111  252 1
 243  111  253 1
 244  112  113 1
 245  112  254 1
 246  112  255 1
 247  113  114 1
 248  113  256 1
 249  113  257 1
 250  114  115 1
 251  114  258 1
 252  114  259 1
 253  115  116 1
 254  115  260 1
 255  115  261 1
 256  116  117 1
 257  116  262 1
 258  116  263 1
 259  117  118 1
 260  117  264 1
 261  117  265 1
 262  118  119 1
 263  118  266 1
 264  118  267 1
 265  119  120 1
 266  119  268 1
 267  119  269 1
 268  120  121 1
 269  120  270 1
 270  120  271 1
 271  121  122 1
 272  121  272 1
 273  121  273 1
 274  122  274 1
 275  122  275 1

#	End of record

