#	Name: ASD07930366
#	Creating user name:	WinNT
#	Creation time:	15. 06. 2019 21:12

#	Modifying user name:	WinNT
#	Modification time:	15. 06. 2019 21:12

#	Program:	/corina/corina34_cracker 3.40 0067  02.08.2006

@<TRIPOS>MOLECULE
ASD07930366
  52   53    0    0    0
SMALL
NO_CHARGES


@<TRIPOS>ATOM
   1 N1            -0.0057     1.4467     0.2174 N.pl3   
   2 C2             0.0021    -0.0041     0.0020 C.3     
   3 C3             0.8306    -0.6737     1.1077 C.3     
   4 N4             2.1539     1.7080     1.1107 N.am    
   5 C5             1.1735     2.1400     0.2469 C.2     
   6 C6            -1.4106    -0.5271     0.0446 C.ar    
   7 C7            -2.1694    -0.3775     1.1934 C.ar    
   8 C8             2.8670     2.6374     1.9904 C.3     
   9 C9             0.6228    -0.3151    -1.3614 C.3     
  10 C10           -1.9494    -1.1501    -1.0638 C.ar    
  11 C11           -3.2516    -1.6319    -1.0240 C.ar    
  12 C12           -4.0086    -1.4859     0.1308 C.ar    
  13 C13           -3.4673    -0.8574     1.2355 C.ar    
  14 N14           -3.7993    -2.2626    -2.1452 N.pl3   
  15 F15           -1.6422     0.2372     2.2747 F       
  16 C16           -5.4219    -2.0072     0.1769 C.3     
  17 S17            2.4899     0.0759     1.1072 S.o2    
  18 O18            3.1487    -0.1562     2.3447 O.2     
  19 O19            3.1459    -0.1516    -0.1326 O.2     
  20 N20            1.3655     3.1936    -0.5317 N.2     
  21 O21            0.5934     4.6697    -2.1578 O.3     
  22 C22           -0.4822     5.0428    -3.0214 C.3     
  23 C23           -1.7191     5.3713    -2.1829 C.3     
  24 C24           -0.0780     6.2722    -3.8375 C.3     
  25 C25           -0.8011     3.8843    -3.9686 C.3     
  26 C26            0.3977     3.5958    -1.3642 C.2     
  27 O27           -0.6591     2.9930    -1.4055 O.2     
  28 H28           -0.8469     1.9151     0.3350 H       
  29 H29            0.3538    -0.5110     2.0743 H       
  30 H30            0.9100    -1.7429     0.9114 H       
  31 H31            2.4920     3.6485     1.8312 H       
  32 H32            2.7064     2.3498     3.0295 H       
  33 H33            3.9329     2.6056     1.7652 H       
  34 H34            1.6453     0.0614    -1.3895 H       
  35 H35            0.6282    -1.3934    -1.5206 H       
  36 H36            0.0371     0.1650    -2.1453 H       
  37 H37           -1.3589    -1.2623    -1.9611 H       
  38 H38           -4.0558    -0.7436     2.1339 H       
  39 H39           -3.2699    -2.3640    -2.9517 H       
  40 H40           -4.7087    -2.5989    -2.1166 H       
  41 H41           -5.4173    -3.0388     0.5290 H       
  42 H42           -6.0133    -1.3940     0.8568 H       
  43 H43           -5.8571    -1.9660    -0.8215 H       
  44 H44           -1.4919     6.1966    -1.5081 H       
  45 H45           -2.5395     5.6559    -2.8417 H       
  46 H46           -2.0070     4.4954    -1.6015 H       
  47 H47            0.8031     6.0382    -4.4349 H       
  48 H48           -0.8985     6.5568    -4.4962 H       
  49 H49            0.1492     7.0976    -3.1627 H       
  50 H50           -1.0890     3.0084    -3.3872 H       
  51 H51           -1.6216     4.1689    -4.6273 H       
  52 H52            0.0801     3.6503    -4.5659 H       
@<TRIPOS>BOND
   1    1    2 1
   2    1    5 1
   3    1   28 1
   4    2    3 1
   5    2    6 1
   6    2    9 1
   7    3   17 1
   8    3   29 1
   9    3   30 1
  10    4    5 1
  11    4    8 1
  12    4   17 am
  13    5   20 2
  14    6   10 ar
  15    6    7 ar
  16    7   15 1
  17    7   13 ar
  18    8   31 1
  19    8   32 1
  20    8   33 1
  21    9   34 1
  22    9   35 1
  23    9   36 1
  24   10   11 ar
  25   10   37 1
  26   11   12 ar
  27   11   14 1
  28   12   13 ar
  29   12   16 1
  30   13   38 1
  31   14   39 1
  32   14   40 1
  33   16   41 1
  34   16   42 1
  35   16   43 1
  36   17   18 2
  37   17   19 2
  38   20   26 1
  39   21   22 1
  40   21   26 1
  41   22   23 1
  42   22   24 1
  43   22   25 1
  44   23   44 1
  45   23   45 1
  46   23   46 1
  47   24   47 1
  48   24   48 1
  49   24   49 1
  50   25   50 1
  51   25   51 1
  52   25   52 1
  53   26   27 2

#	End of record

