#	Name: ASD02039378
#	Creating user name:	WinNT
#	Creation time:	15. 06. 2019 20:18

#	Modifying user name:	WinNT
#	Modification time:	15. 06. 2019 20:18

#	Program:	/corina/corina34_cracker 3.40 0067  02.08.2006

@<TRIPOS>MOLECULE
ASD02039378
  50   52    0    0    0
SMALL
NO_CHARGES


@<TRIPOS>ATOM
   1 C1            -0.1271     1.5233    -0.1521 C.ar    
   2 C2            -0.1250     0.1393    -0.0541 C.ar    
   3 C3            -1.3217    -0.5485    -0.1408 C.ar    
   4 C4            -2.5056     1.4158    -0.4018 C.ar    
   5 C5            -1.3376     2.1714    -0.3288 C.ar    
   6 C6            -3.8106     2.0953    -0.5914 C.ar    
   7 C7             1.1588     2.3039    -0.0620 C.3     
   8 N8             1.7991     2.3440    -1.3790 N.am    
   9 C9             1.3655     3.3274    -2.3746 C.3     
  10 C10            2.7870     1.4762    -1.6747 C.2     
  11 C11            3.1633     0.4309    -0.7072 C.2     
  12 C12            4.1818    -0.4662    -0.8447 C.2     
  13 N13            2.5635     0.1887     0.4864 N.2     
  14 C14            3.1667    -0.8086     1.0660 C.2     
  15 N15            4.1769    -1.2395     0.2664 N.pl3   
  16 O16            3.3678     1.5561    -2.7403 O.2     
  17 C17            5.0957    -2.3436     0.5546 C.3     
  18 C18           -3.8583     3.4725    -0.8002 C.ar    
  19 N19           -2.4592     0.0926    -0.3151 N.ar    
  20 C20           -4.9928     1.3581    -0.5670 C.ar    
  21 C21           -6.2043     1.9956    -0.7440 C.ar    
  22 C22           -6.2461     3.3633    -0.9452 C.ar    
  23 C23           -5.0750     4.0993    -0.9760 C.ar    
  24 C24            2.5143     4.2935    -2.6711 C.3     
  25 C25            0.9610     2.6057    -3.6617 C.3     
  26 F26           -7.9707     1.1417     0.5917 F       
  27 F27           -8.4324     1.8154    -1.5418 F       
  28 C28           -7.4837     1.1997    -0.7185 C.3     
  29 F29           -7.2356    -0.0970    -1.1815 F       
  30 H30            0.8022    -0.3958     0.0881 H       
  31 H31           -1.3236    -1.6258    -0.0649 H       
  32 H32           -1.3769     3.2484    -0.3995 H       
  33 H33            0.9444     3.3201     0.2689 H       
  34 H34            1.8267     1.8225     0.6523 H       
  35 H35            0.5127     3.8848    -1.9873 H       
  36 H36            4.8616    -0.5447    -1.6802 H       
  37 H37            2.9079    -1.2243     2.0286 H       
  38 H38            4.6796    -3.2733     0.1665 H       
  39 H39            6.0573    -2.1496     0.0793 H       
  40 H40            5.2339    -2.4295     1.6324 H       
  41 H41           -2.9448     4.0481    -0.8241 H       
  42 H42           -4.9612     0.2900    -0.4104 H       
  43 H43           -7.1962     3.8579    -1.0836 H       
  44 H44           -5.1135     5.1670    -1.1335 H       
  45 H45            3.3335     3.7503    -3.1421 H       
  46 H46            2.1651     5.0781    -3.3423 H       
  47 H47            2.8626     4.7404    -1.7399 H       
  48 H48            0.2082     1.8511    -3.4339 H       
  49 H49            0.5506     3.3266    -4.3688 H       
  50 H50            1.8362     2.1254    -4.0993 H       
@<TRIPOS>BOND
   1    1    2 ar
   2    1    7 1
   3    1    5 ar
   4    2    3 ar
   5    2   30 1
   6    3   19 ar
   7    3   31 1
   8    4    5 ar
   9    4    6 1
  10    4   19 ar
  11    5   32 1
  12    6   18 ar
  13    6   20 ar
  14    7    8 1
  15    7   33 1
  16    7   34 1
  17    8    9 1
  18    8   10 am
  19    9   24 1
  20    9   25 1
  21    9   35 1
  22   10   11 1
  23   10   16 2
  24   11   12 2
  25   11   13 1
  26   12   15 1
  27   12   36 1
  28   13   14 2
  29   14   15 1
  30   14   37 1
  31   15   17 1
  32   17   38 1
  33   17   39 1
  34   17   40 1
  35   18   23 ar
  36   18   41 1
  37   20   21 ar
  38   20   42 1
  39   21   22 ar
  40   21   28 1
  41   22   23 ar
  42   22   43 1
  43   23   44 1
  44   24   45 1
  45   24   46 1
  46   24   47 1
  47   25   48 1
  48   25   49 1
  49   25   50 1
  50   26   28 1
  51   27   28 1
  52   28   29 1

#	End of record

