#	Name: ASD09116169
#	Creating user name:	WinNT
#	Creation time:	15. 06. 2019 21:20

#	Modifying user name:	WinNT
#	Modification time:	15. 06. 2019 21:20

#	Program:	/corina/corina34_cracker 3.40 0067  02.08.2006

@<TRIPOS>MOLECULE
ASD09116169
  79   86    0    0    0
SMALL
NO_CHARGES


@<TRIPOS>ATOM
   1 N1            -0.1162     1.7103     0.5073 N.2     
   2 C2            -0.1330     0.2610     0.7732 C.3     
   3 C3             1.1400     2.0623     0.4619 C.2     
   4 N4             1.9808     1.0274     0.6649 N.2     
   5 C5             1.3384    -0.0944     0.8611 C.2     
   6 N6             1.5629     3.3557     0.2308 N.pl3   
   7 C7             2.9257     3.6713     0.3069 C.ar    
   8 C8             3.4524     4.6713    -0.4989 C.ar    
   9 C9             3.7483     2.9872     1.1927 C.ar    
  10 C10            5.0927     3.2988     1.2675 C.ar    
  11 C11            5.6207     4.2971     0.4556 C.ar    
  12 C12            4.7964     4.9830    -0.4250 C.ar    
  13 N13            1.8767    -1.3216     1.0943 N.pl3   
  14 C14           -0.8294    -0.0322     2.0771 C.ar    
  15 C15           -1.7249    -1.0740     2.1677 C.ar    
  16 N16           -0.5818     0.7064     3.1478 N.ar    
  17 N17           -1.1503     0.4951     4.2793 N.ar    
  18 C18           -2.0335    -0.4855     4.4586 C.ar    
  19 C19           -2.3465    -1.3104     3.3892 C.ar    
  20 N20            6.9833     4.6140     0.5310 N.3     
  21 C21            7.6446     4.4053    -0.7634 C.3     
  22 C22            9.1519     4.6200    -0.6083 C.3     
  23 C23            9.4107     6.0429    -0.1054 C.3     
  24 C24            8.6716     6.2499     1.2196 C.3     
  25 C25            7.1783     5.9879     1.0114 C.3     
  26 N26           10.8522     6.2359     0.1012 N.3     
  27 F27            5.8935     2.6343     2.1291 F       
  28 C28           11.5909     6.0989    -1.1674 C.3     
  29 C29           -3.2795    -2.5033     3.2055 C.3     
  30 C30           -2.3192    -3.7233     3.0330 C.3     
  31 C31           -1.6229    -3.4643     1.6753 C.3     
  32 C32           -2.2446    -2.1158     1.1812 C.3     
  33 C33           -3.7163    -2.2806     1.7097 C.3     
  34 C34           -2.6676    -0.6957     5.7831 C.ar    
  35 C35           -1.9429    -0.4624     6.9503 C.ar    
  36 C36           -2.5380    -0.6591     8.1800 C.ar    
  37 C37           -3.8513    -1.0870     8.2551 C.ar    
  38 C38           -4.5753    -1.3202     7.0998 C.ar    
  39 C39           -3.9920    -1.1217     5.8648 C.ar    
  40 C40           12.3821     7.4067    -1.3794 C.3     
  41 C41           12.4954     7.9833     0.0564 C.3     
  42 C42           11.1321     7.5730     0.6668 C.3     
  43 H43           -0.6123    -0.2747    -0.0461 H       
  44 H44            0.9164     4.0462     0.0158 H       
  45 H45            2.8113     5.2058    -1.1843 H       
  46 H46            3.3375     2.2124     1.8230 H       
  47 H47            5.2062     5.7582    -1.0555 H       
  48 H48            2.8400    -1.4302     1.1283 H       
  49 H49            1.2972    -2.0882     1.2266 H       
  50 H50            7.4561     3.3884    -1.1077 H       
  51 H51            7.2498     5.1141    -1.4914 H       
  52 H52            9.5497     3.9024     0.1093 H       
  53 H53            9.6405     4.4803    -1.5725 H       
  54 H54            9.0478     6.7608    -0.8409 H       
  55 H55            9.0619     5.5579     1.9659 H       
  56 H56            8.8172     7.2747     1.5612 H       
  57 H57            6.7857     6.6893     0.2752 H       
  58 H58            6.6512     6.1205     1.9562 H       
  59 H59           12.2784     5.2552    -1.1070 H       
  60 H60           10.8910     5.9514    -1.9899 H       
  61 H61           -4.0715    -2.6144     3.9461 H       
  62 H62           -1.5863    -3.7496     3.8393 H       
  63 H63           -2.8859    -4.6539     3.0002 H       
  64 H64           -0.5463    -3.3622     1.8116 H       
  65 H65           -1.8455    -4.2672     0.9725 H       
  66 H66           -2.1154    -1.8845     0.1239 H       
  67 H67           -4.2126    -3.1551     1.2888 H       
  68 H68           -4.3072    -1.3738     1.5811 H       
  69 H69           -0.9174    -0.1286     6.8928 H       
  70 H70           -1.9773    -0.4789     9.0852 H       
  71 H71           -4.3129    -1.2400     9.2194 H       
  72 H72           -5.6002    -1.6546     7.1643 H       
  73 H73           -4.5583    -1.3037     4.9634 H       
  74 H74           13.3700     7.1973    -1.7897 H       
  75 H75           11.8316     8.0895    -2.0266 H       
  76 H76           13.3207     7.5217     0.5985 H       
  77 H77           12.6027     9.0678     0.0343 H       
  78 H78           10.3562     8.2796     0.3721 H       
  79 H79           11.2038     7.5181     1.7530 H       
@<TRIPOS>BOND
   1    1    2 1
   2    1    3 2
   3    2   14 1
   4    2    5 1
   5    2   43 1
   6    3    4 1
   7    3    6 1
   8    4    5 2
   9    5   13 1
  10    6    7 1
  11    6   44 1
  12    7    8 ar
  13    7    9 ar
  14    8   12 ar
  15    8   45 1
  16    9   10 ar
  17    9   46 1
  18   10   11 ar
  19   10   27 1
  20   11   12 ar
  21   11   20 1
  22   12   47 1
  23   13   48 1
  24   13   49 1
  25   14   15 ar
  26   14   16 ar
  27   15   19 ar
  28   15   32 1
  29   16   17 ar
  30   17   18 ar
  31   18   19 ar
  32   18   34 1
  33   19   29 1
  34   20   21 1
  35   20   25 1
  36   21   22 1
  37   21   50 1
  38   21   51 1
  39   22   23 1
  40   22   52 1
  41   22   53 1
  42   23   24 1
  43   23   26 1
  44   23   54 1
  45   24   25 1
  46   24   55 1
  47   24   56 1
  48   25   57 1
  49   25   58 1
  50   26   28 1
  51   26   42 1
  52   28   40 1
  53   28   59 1
  54   28   60 1
  55   29   30 1
  56   29   33 1
  57   29   61 1
  58   30   31 1
  59   30   62 1
  60   30   63 1
  61   31   32 1
  62   31   64 1
  63   31   65 1
  64   32   33 1
  65   32   66 1
  66   33   67 1
  67   33   68 1
  68   34   35 ar
  69   34   39 ar
  70   35   36 ar
  71   35   69 1
  72   36   37 ar
  73   36   70 1
  74   37   38 ar
  75   37   71 1
  76   38   39 ar
  77   38   72 1
  78   39   73 1
  79   40   41 1
  80   40   74 1
  81   40   75 1
  82   41   42 1
  83   41   76 1
  84   41   77 1
  85   42   78 1
  86   42   79 1

#	End of record

