#	Name: ASD08150958
#	Creating user name:	WinNT
#	Creation time:	15. 06. 2019 21:16

#	Modifying user name:	WinNT
#	Modification time:	15. 06. 2019 21:16

#	Program:	/corina/corina34_cracker 3.40 0067  02.08.2006

@<TRIPOS>MOLECULE
ASD08150958
  59   64    0    0    0
SMALL
NO_CHARGES


@<TRIPOS>ATOM
   1 N1             0.0891     1.3962    -0.4636 N.2     
   2 C2             0.1393     0.0993    -0.5602 C.2     
   3 N3             1.4363    -0.3115    -0.6455 N.pl3   
   4 C4             2.2266     0.8090    -0.5977 C.ar    
   5 N5             3.5353     1.0367    -0.6374 N.ar    
   6 C6             4.0050     2.2646    -0.5685 C.ar    
   7 N7             3.2183     3.3193    -0.4577 N.ar    
   8 C8             1.8964     3.1900    -0.4103 C.ar    
   9 C9             1.3471     1.8987    -0.4808 C.ar    
  10 N10            1.0800     4.3013    -0.2936 N.pl3   
  11 C11            1.6709     5.6399    -0.2209 C.3     
  12 C12            2.0201     6.1205    -1.6309 C.3     
  13 N13            0.6284     9.6625     2.3494 N.ar    
  14 C14           -0.2266    10.4933     2.8947 C.ar    
  15 C15           -1.6024    10.2948     2.8009 C.ar    
  16 C16           -2.0903     9.2117     2.1270 C.ar    
  17 C17           -1.1687     8.3222     1.5429 C.ar    
  18 C18           -1.5979     7.1874     0.8344 C.ar    
  19 C19           -0.6805     6.3456     0.2801 C.ar    
  20 C20            0.6836     6.5916     0.4041 C.ar    
  21 C21            1.1430     7.6939     1.0913 C.ar    
  22 C22            0.2168     8.5844     1.6768 C.ar    
  23 N23            2.5135     7.9281     1.2083 N.3     
  24 C24            2.9410     7.8617     2.6122 C.3     
  25 C25            4.4696     7.9428     2.6815 C.3     
  26 N26            4.9072     9.1440     1.9544 N.am    
  27 C27            4.4080     9.3497     0.5863 C.3     
  28 C28            2.8817     9.2132     0.5994 C.3     
  29 C29            5.7432    10.0329     2.5266 C.2     
  30 O30            6.1448     9.8476     3.6559 O.2     
  31 C31            6.1789    11.2571     1.7633 C.3     
  32 C32            7.1286    12.2280     2.4678 C.3     
  33 C33            7.6457    11.3381     1.3357 C.3     
  34 Cl34          -3.2940     6.8578     0.6659 Cl      
  35 H35           -0.7199    -0.5550    -0.5707 H       
  36 H36            1.7440    -1.2280    -0.7250 H       
  37 H37            5.0740     2.4148    -0.6035 H       
  38 H38            0.1165     4.1940    -0.2600 H       
  39 H39            2.5759     5.6051     0.3856 H       
  40 H40            1.1326     6.0710    -2.2618 H       
  41 H41            2.3771     7.1494    -1.5860 H       
  42 H42            2.7993     5.4834    -2.0493 H       
  43 H43            0.1453    11.3539     3.4310 H       
  44 H44           -2.2824    10.9965     3.2610 H       
  45 H45           -3.1537     9.0422     2.0447 H       
  46 H46           -1.0170     5.4750    -0.2633 H       
  47 H47            2.5070     8.6953     3.1643 H       
  48 H48            2.6064     6.9213     3.0502 H       
  49 H49            4.7859     8.0095     3.7225 H       
  50 H50            4.9047     7.0565     2.2198 H       
  51 H51            4.6835    10.3466     0.2420 H       
  52 H52            4.8371     8.5986    -0.0769 H       
  53 H53            2.5042     9.2530    -0.4224 H       
  54 H54            2.4487    10.0280     1.1796 H       
  55 H55            5.4339    11.6812     1.0901 H       
  56 H56            7.0087    13.2908     2.2577 H       
  57 H57            7.4382    11.9814     3.4834 H       
  58 H58            8.2955    10.5060     1.6065 H       
  59 H59            7.8659    11.8154     0.3809 H       
@<TRIPOS>BOND
   1    1    2 2
   2    1    9 1
   3    2    3 1
   4    2   35 1
   5    3    4 1
   6    3   36 1
   7    4    5 ar
   8    4    9 ar
   9    5    6 ar
  10    6    7 ar
  11    6   37 1
  12    7    8 ar
  13    8    9 ar
  14    8   10 1
  15   10   11 1
  16   10   38 1
  17   11   12 1
  18   11   20 1
  19   11   39 1
  20   12   40 1
  21   12   41 1
  22   12   42 1
  23   13   14 ar
  24   13   22 ar
  25   14   15 ar
  26   14   43 1
  27   15   16 ar
  28   15   44 1
  29   16   17 ar
  30   16   45 1
  31   17   18 ar
  32   17   22 ar
  33   18   19 ar
  34   18   34 1
  35   19   20 ar
  36   19   46 1
  37   20   21 ar
  38   21   22 ar
  39   21   23 1
  40   23   24 1
  41   23   28 1
  42   24   25 1
  43   24   47 1
  44   24   48 1
  45   25   26 1
  46   25   49 1
  47   25   50 1
  48   26   27 1
  49   26   29 am
  50   27   28 1
  51   27   51 1
  52   27   52 1
  53   28   53 1
  54   28   54 1
  55   29   30 2
  56   29   31 1
  57   31   32 1
  58   31   33 1
  59   31   55 1
  60   32   33 1
  61   32   56 1
  62   32   57 1
  63   33   58 1
  64   33   59 1

#	End of record

