#	Name: ASD01917964
#	Creating user name:	WinNT
#	Creation time:	15. 06. 2019 20:10

#	Modifying user name:	WinNT
#	Modification time:	15. 06. 2019 20:10

#	Program:	/corina/corina34_cracker 3.40 0067  02.08.2006

@<TRIPOS>MOLECULE
ASD01917964
  37   40    0    0    0
SMALL
NO_CHARGES


@<TRIPOS>ATOM
   1 N1             4.8232    -0.4056    -2.1632 N.ar    
   2 C2             5.2897     0.2956    -3.1779 C.ar    
   3 C3             5.1771     1.6743    -3.1996 C.ar    
   4 C4             4.5642     2.3198    -2.1363 C.ar    
   5 C5             4.0840     1.5485    -1.0830 C.ar    
   6 C6             4.2344     0.1697    -1.1338 C.ar    
   7 O7             3.4765     2.1366    -0.0192 O.3     
   8 C8             3.4570     3.4956     0.0340 C.2     
   9 N9             2.2060     5.5083    -0.0260 N.pl3   
  10 C10            2.2741     4.1526    -0.0732 C.2     
  11 C11            4.6567     4.1969     0.2043 C.2     
  12 C12            4.6286     5.5861     0.2578 C.2     
  13 C13            3.3360     6.2592     0.1327 C.2     
  14 C14            5.8686     6.3599     0.4363 C.2     
  15 N15            5.8217     7.7060     0.4857 N.am    
  16 C16            6.9913     8.4358     0.6541 C.2     
  17 O17            6.9352     5.7843     0.5391 O.2     
  18 N18            1.1430     6.4194    -0.1094 N.2     
  19 C19            1.6575     7.6221    -0.0091 C.2     
  20 N20            2.9728     7.5320     0.1422 N.2     
  21 Cl21           5.7962     2.5852    -4.5415 Cl      
  22 S22            8.5537     7.7595     0.8109 S.3     
  23 C23            9.2481     9.3717     0.9595 C.2     
  24 C24            8.2549    10.2592     0.8787 C.2     
  25 N25            7.0579     9.7294     0.7097 N.2     
  26 C26            8.4823    11.7464     0.9669 C.3     
  27 H27            5.7663    -0.2132    -4.0028 H       
  28 H28            4.4626     3.3950    -2.1260 H       
  29 H29            3.8647    -0.4383    -0.3214 H       
  30 H30            1.3649     3.5835    -0.1994 H       
  31 H31            5.5926     3.6653     0.2934 H       
  32 H32            4.9712     8.1650     0.4038 H       
  33 H33            1.0957     8.5440    -0.0375 H       
  34 H34           10.2949     9.6016     1.0931 H       
  35 H35            8.6577    12.1470    -0.0315 H       
  36 H36            7.6033    12.2232     1.4005 H       
  37 H37            9.3504    11.9445     1.5956 H       
@<TRIPOS>BOND
   1    1    2 ar
   2    1    6 ar
   3    2    3 ar
   4    2   27 1
   5    3    4 ar
   6    3   21 1
   7    4    5 ar
   8    4   28 1
   9    5    6 ar
  10    5    7 1
  11    6   29 1
  12    7    8 1
  13    8   11 1
  14    8   10 2
  15    9   10 1
  16    9   18 1
  17    9   13 1
  18   10   30 1
  19   11   12 2
  20   11   31 1
  21   12   13 1
  22   12   14 1
  23   13   20 2
  24   14   15 am
  25   14   17 2
  26   15   16 1
  27   15   32 1
  28   16   22 1
  29   16   25 2
  30   18   19 2
  31   19   20 1
  32   19   33 1
  33   22   23 1
  34   23   24 2
  35   23   34 1
  36   24   25 1
  37   24   26 1
  38   26   35 1
  39   26   36 1
  40   26   37 1

#	End of record

