#	Name: ASD05740064
#	Creating user name:	WinNT
#	Creation time:	15. 06. 2019 21:02

#	Modifying user name:	WinNT
#	Modification time:	15. 06. 2019 21:02

#	Program:	/corina/corina34_cracker 3.40 0067  02.08.2006

@<TRIPOS>MOLECULE
ASD05740064
  47   50    0    0    0
SMALL
NO_CHARGES


@<TRIPOS>ATOM
   1 C1             1.7688     1.3903     1.1774 C.ar    
   2 C2             3.5706    14.3208     1.8516 C.3     
   3 C3             1.5137     9.8134     0.0711 C.3     
   4 C4            -0.1541     3.8539     0.1810 C.ar    
   5 C5             1.1343     3.3340     0.0708 C.ar    
   6 C6            -0.3553     5.2034     0.2049 C.ar    
   7 C7             0.7392     6.0714     0.1181 C.ar    
   8 C8             2.0425     5.5525     0.0066 C.ar    
   9 C9             2.2289     4.1784    -0.0161 C.ar    
  10 C10            0.5535     7.5239     0.1407 C.2     
  11 C11            1.6555     8.3132     0.0524 C.2     
  12 C12            2.9325     7.7252    -0.0571 C.2     
  13 O13            3.0959     6.3931    -0.0773 O.3     
  14 C14            1.6973    10.3179     1.4792 C.2     
  15 C15            1.8416     9.4684     2.5647 C.2     
  16 O16            3.9122     8.4445    -0.1355 O.2     
  17 O17            1.3181     1.9891     0.0489 O.3     
  18 C18           -0.8228     8.1264     0.2581 C.3     
  19 C19            1.7396    11.6241     1.7798 C.2     
  20 S20            1.9723    11.8213     3.5120 S.3     
  21 C21            1.9949    10.0777     3.7395 C.2     
  22 N22            1.6181    12.6668     0.8594 N.am    
  23 S23            1.8291    14.2340     1.3511 S.o2    
  24 O24            0.9783    14.3641     2.4818 O.2     
  25 O25            1.6090    15.0025     0.1763 O.2     
  26 N26            1.8642     0.0709     1.2141 N.ar    
  27 C27            2.3009    -0.5459     2.2999 C.ar    
  28 C28            2.6601     0.2074     3.4066 C.ar    
  29 C29            2.5474     1.5868     3.3331 C.ar    
  30 N30            2.1080     2.1393     2.2142 N.ar    
  31 H31            4.2058    14.0720     1.0014 H       
  32 H32            3.8004    15.3298     2.1939 H       
  33 H33            3.7520    13.6127     2.6602 H       
  34 H34            2.2701    10.2580    -0.5757 H       
  35 H35            0.5218    10.0891    -0.2871 H       
  36 H36           -0.9992     3.1843     0.2435 H       
  37 H37           -1.3561     5.6004     0.2902 H       
  38 H38            3.2243     3.7681    -0.1009 H       
  39 H39            1.8304     8.3931     2.4656 H       
  40 H40           -1.5645     7.3298     0.3159 H       
  41 H41           -0.8759     8.7383     1.1586 H       
  42 H42           -1.0234     8.7470    -0.6152 H       
  43 H43            2.1193     9.5763     4.6880 H       
  44 H44            1.4101    12.4733    -0.0680 H       
  45 H45            2.3762    -1.6230     2.3239 H       
  46 H46            3.0194    -0.2700     4.3063 H       
  47 H47            2.8185     2.2033     4.1774 H       
@<TRIPOS>BOND
   1    1   26 ar
   2    1   17 1
   3    1   30 ar
   4    2   23 1
   5    2   31 1
   6    2   32 1
   7    2   33 1
   8    3   11 1
   9    3   14 1
  10    3   34 1
  11    3   35 1
  12    4    5 ar
  13    4    6 ar
  14    4   36 1
  15    5   17 1
  16    5    9 ar
  17    6    7 ar
  18    6   37 1
  19    7    8 ar
  20    7   10 1
  21    8    9 ar
  22    8   13 1
  23    9   38 1
  24   10   11 2
  25   10   18 1
  26   11   12 1
  27   12   13 1
  28   12   16 2
  29   14   15 1
  30   14   19 2
  31   15   21 2
  32   15   39 1
  33   18   40 1
  34   18   41 1
  35   18   42 1
  36   19   20 1
  37   19   22 1
  38   20   21 1
  39   21   43 1
  40   22   23 am
  41   22   44 1
  42   23   24 2
  43   23   25 2
  44   26   27 ar
  45   27   28 ar
  46   27   45 1
  47   28   29 ar
  48   28   46 1
  49   29   30 ar
  50   29   47 1

#	End of record

