#	Name: ASD03090631
#	Creating user name:	WinNT
#	Creation time:	15. 06. 2019 20:29

#	Modifying user name:	WinNT
#	Modification time:	15. 06. 2019 20:29

#	Program:	/corina/corina34_cracker 3.40 0067  02.08.2006

@<TRIPOS>MOLECULE
ASD03090631
  38   39    0    0    0
SMALL
NO_CHARGES


@<TRIPOS>ATOM
   1 N1            -0.0162     1.3436     0.0094 N.am    
   2 C2             0.0193     0.1476     0.6299 C.2     
   3 O3             1.0728    -0.2854     1.0556 O.2     
   4 N4            -1.1129    -0.5683     0.7785 N.am    
   5 S5            -2.4311    -2.8123     1.6750 S.3     
   6 C6            -1.0762    -1.8017     1.4183 C.2     
   7 N7            -0.0099    -2.3531     1.9072 N.2     
   8 C8            -0.1573    -3.5318     2.4835 C.2     
   9 C9            -1.4073    -3.9979     2.4811 C.2     
  10 C10           -1.8638    -5.3097     3.0659 C.3     
  11 C11            1.1453     2.1273    -0.0707 C.ar    
  12 C12            1.0454     3.5109    -0.1992 C.ar    
  13 C13            2.1933     4.2814    -0.2781 C.ar    
  14 C14            3.4397     3.6746    -0.2290 C.ar    
  15 C15            3.5374     2.2972    -0.1015 C.ar    
  16 C16            2.3934     1.5259    -0.0164 C.ar    
  17 C17            4.8929     1.6407    -0.0490 C.3     
  18 O18            4.5669     4.4311    -0.3065 O.3     
  19 C19            4.3927     5.8434    -0.4372 C.3     
  20 O20           -0.1773     4.1038    -0.2476 O.3     
  21 C21           -0.2038     5.5264    -0.3802 C.3     
  22 H22           -0.8435     1.6608    -0.3852 H       
  23 H23           -1.9532    -0.2229     0.4389 H       
  24 H24            0.6674    -4.0749     2.9208 H       
  25 H25           -2.9376    -5.4207     2.9149 H       
  26 H26           -1.3409    -6.1290     2.5726 H       
  27 H27           -1.6432    -5.3281     4.1332 H       
  28 H28            2.1181     5.3541    -0.3781 H       
  29 H29            2.4717     0.4538     0.0877 H       
  30 H30            5.2261     1.5776     0.9869 H       
  31 H31            4.8276     0.6380    -0.4714 H       
  32 H32            5.6053     2.2317    -0.6245 H       
  33 H33            5.3683     6.3267    -0.4882 H       
  34 H34            3.8330     6.0577    -1.3477 H       
  35 H35            3.8438     6.2231     0.4245 H       
  36 H36           -1.2380     5.8697    -0.4063 H       
  37 H37            0.3083     5.9799     0.4685 H       
  38 H38            0.2982     5.8146    -1.3038 H       
@<TRIPOS>BOND
   1    1    2 am
   2    1   11 1
   3    1   22 1
   4    2    3 2
   5    2    4 am
   6    4    6 1
   7    4   23 1
   8    5    6 1
   9    5    9 1
  10    6    7 2
  11    7    8 1
  12    8    9 2
  13    8   24 1
  14    9   10 1
  15   10   25 1
  16   10   26 1
  17   10   27 1
  18   11   12 ar
  19   11   16 ar
  20   12   13 ar
  21   12   20 1
  22   13   14 ar
  23   13   28 1
  24   14   15 ar
  25   14   18 1
  26   15   16 ar
  27   15   17 1
  28   16   29 1
  29   17   30 1
  30   17   31 1
  31   17   32 1
  32   18   19 1
  33   19   33 1
  34   19   34 1
  35   19   35 1
  36   20   21 1
  37   21   36 1
  38   21   37 1
  39   21   38 1

#	End of record

