#	Name: ASD03091338
#	Creating user name:	WinNT
#	Creation time:	15. 06. 2019 20:30

#	Modifying user name:	WinNT
#	Modification time:	15. 06. 2019 20:30

#	Program:	/corina/corina34_cracker 3.40 0067  02.08.2006

@<TRIPOS>MOLECULE
ASD03091338
  48   52    0    0    0
SMALL
NO_CHARGES


@<TRIPOS>ATOM
   1 N1            -0.0665     1.9763     0.4311 N.am    
   2 C2             0.1256     0.6214     0.4691 C.2     
   3 N3            -0.8567    -0.2406     0.4135 N.2     
   4 C4            -2.1420     0.1554     0.3141 C.ar    
   5 C5            -2.4354     1.5375     0.2688 C.ar    
   6 C6            -1.3158     2.4883     0.3374 C.2     
   7 C7             1.5067     0.1089     0.5774 C.ar    
   8 O8            -1.5049     3.6903     0.3030 O.2     
   9 C9            -3.1880    -0.7709     0.2546 C.ar    
  10 C10           -4.4780    -0.3357     0.1537 C.ar    
  11 C11           -4.7727     1.0271     0.1087 C.ar    
  12 C12           -3.7568     1.9662     0.1658 C.ar    
  13 N13           -6.1017     1.4472     0.0048 N.3     
  14 C14            1.8646    -0.7237     1.6395 C.ar    
  15 C15            3.1557    -1.1992     1.7355 C.ar    
  16 C16            4.0979    -0.8538     0.7826 C.ar    
  17 C17            3.7533    -0.0289    -0.2736 C.ar    
  18 C18            2.4604     0.4506    -0.3863 C.ar    
  19 C19            1.0866     2.8774     0.4982 C.3     
  20 C20           -6.1982     2.7263    -0.7391 C.3     
  21 C21           -7.1467     2.4263    -1.9408 C.3     
  22 N22           -6.3311     1.5505    -2.8401 N.3     
  23 C23           -6.1347     0.2783    -2.1040 C.3     
  24 C24           -6.9183     0.4579    -0.7670 C.3     
  25 C25           -5.0420     2.1786    -3.1590 C.3     
  26 C26           -8.0949     1.3683    -1.2709 C.3     
  27 Cl27           4.9432     0.3992    -1.4630 Cl      
  28 F28            2.1235     1.2556    -1.4175 F       
  29 H29           -2.9756    -1.8292     0.2880 H       
  30 H30           -5.2812    -1.0562     0.1078 H       
  31 H31           -3.9867     3.0209     0.1311 H       
  32 H32            1.1316    -0.9947     2.3849 H       
  33 H33            3.4324    -1.8429     2.5574 H       
  34 H34            5.1071    -1.2297     0.8639 H       
  35 H35            1.4701     3.0524    -0.5070 H       
  36 H36            0.7815     3.8256     0.9409 H       
  37 H37            1.8664     2.4247     1.1108 H       
  38 H38           -6.6256     3.5022    -0.1040 H       
  39 H39           -5.2152     3.0297    -1.0992 H       
  40 H40           -7.6177     3.2901    -2.4100 H       
  41 H41           -6.5444    -0.5558    -2.6737 H       
  42 H42           -5.0756     0.1167    -1.9033 H       
  43 H43           -7.1878    -0.4573    -0.2399 H       
  44 H44           -4.4235     2.2144    -2.2621 H       
  45 H45           -4.5341     1.5958    -3.9275 H       
  46 H46           -5.2118     3.1915    -3.5240 H       
  47 H47           -8.6728     1.7913    -0.4492 H       
  48 H48           -8.7292     0.8611    -1.9979 H       
@<TRIPOS>BOND
   1    1    2 1
   2    1   19 1
   3    1    6 am
   4    2    3 2
   5    2    7 1
   6    3    4 1
   7    4    5 ar
   8    4    9 ar
   9    5    6 1
  10    5   12 ar
  11    6    8 2
  12    7   14 ar
  13    7   18 ar
  14    9   10 ar
  15    9   29 1
  16   10   11 ar
  17   10   30 1
  18   11   12 ar
  19   11   13 1
  20   12   31 1
  21   13   20 1
  22   13   24 1
  23   14   15 ar
  24   14   32 1
  25   15   16 ar
  26   15   33 1
  27   16   17 ar
  28   16   34 1
  29   17   18 ar
  30   17   27 1
  31   18   28 1
  32   19   35 1
  33   19   36 1
  34   19   37 1
  35   20   21 1
  36   20   38 1
  37   20   39 1
  38   21   22 1
  39   21   26 1
  40   21   40 1
  41   22   23 1
  42   22   25 1
  43   23   24 1
  44   23   41 1
  45   23   42 1
  46   24   26 1
  47   24   43 1
  48   25   44 1
  49   25   45 1
  50   25   46 1
  51   26   47 1
  52   26   48 1

#	End of record

