#	Name: ASD01890343
#	Creating user name:	WinNT
#	Creation time:	15. 06. 2019 19:50

#	Modifying user name:	WinNT
#	Modification time:	15. 06. 2019 19:50

#	Program:	/corina/corina34_cracker 3.40 0067  02.08.2006

@<TRIPOS>MOLECULE
ASD01890343
  37   40    0    0    0
SMALL
NO_CHARGES


@<TRIPOS>ATOM
   1 C1            -0.0166     1.3723     0.0096 C.ar    
   2 C2             0.0021    -0.0041     0.0020 C.ar    
   3 C3            -1.1994    -0.7156     0.0107 C.ar    
   4 C4            -2.4189    -0.0155     0.0260 C.ar    
   5 C5            -2.4173     1.3716     0.0333 C.ar    
   6 C6            -1.2218     2.0588     0.0306 C.ar    
   7 N7            -1.4972    -2.0443     0.0095 N.2     
   8 C8            -2.7797    -2.2063     0.0256 C.2     
   9 N9            -3.4045    -0.9794     0.0303 N.am    
  10 C10           -3.5528    -3.5062     0.0452 C.3     
  11 C11           -4.9150    -3.2298     0.6959 C.3     
  12 C12           -5.6081    -2.0712    -0.0228 C.3     
  13 C13           -4.7440    -0.8336     0.0323 C.2     
  14 O14           -5.2440     0.2654     0.0771 O.2     
  15 C15           -5.7748    -4.4638     0.6016 C.ar    
  16 C16           -6.2426    -5.0696     1.7528 C.ar    
  17 C17           -7.0312    -6.2014     1.6669 C.ar    
  18 C18           -7.3524    -6.7281     0.4285 C.ar    
  19 C19           -6.8839    -6.1214    -0.7232 C.ar    
  20 C20           -6.1000    -4.9863    -0.6362 C.ar    
  21 Cl21          -8.3424    -8.1500     0.3199 Cl      
  22 C22            1.2811     2.1385     0.0013 C.3     
  23 H23            0.9439    -0.5325    -0.0110 H       
  24 H24           -3.3517     1.9130     0.0449 H       
  25 H25           -1.2239     3.1388     0.0365 H       
  26 H26           -3.6964    -3.8660    -0.9737 H       
  27 H27           -3.0095    -4.2505     0.6274 H       
  28 H28           -4.7694    -2.9703     1.7446 H       
  29 H29           -5.7823    -2.3441    -1.0636 H       
  30 H30           -6.5637    -1.8665     0.4598 H       
  31 H31           -5.9916    -4.6585     2.7195 H       
  32 H32           -7.3964    -6.6748     2.5664 H       
  33 H33           -7.1342    -6.5321    -1.6902 H       
  34 H34           -5.7342    -4.5126    -1.5352 H       
  35 H35            1.5842     2.3287    -1.0283 H       
  36 H36            1.1465     3.0868     0.5216 H       
  37 H37            2.0513     1.5541     0.5047 H       
@<TRIPOS>BOND
   1    1    2 ar
   2    1   22 1
   3    1    6 ar
   4    2    3 ar
   5    2   23 1
   6    3    4 ar
   7    3    7 1
   8    4    5 ar
   9    4    9 1
  10    5    6 ar
  11    5   24 1
  12    6   25 1
  13    7    8 2
  14    8    9 1
  15    8   10 1
  16    9   13 am
  17   10   11 1
  18   10   26 1
  19   10   27 1
  20   11   12 1
  21   11   15 1
  22   11   28 1
  23   12   13 1
  24   12   29 1
  25   12   30 1
  26   13   14 2
  27   15   16 ar
  28   15   20 ar
  29   16   17 ar
  30   16   31 1
  31   17   18 ar
  32   17   32 1
  33   18   19 ar
  34   18   21 1
  35   19   20 ar
  36   19   33 1
  37   20   34 1
  38   22   35 1
  39   22   36 1
  40   22   37 1

#	End of record

