#	Name: ASD04162006
#	Creating user name:	WinNT
#	Creation time:	15. 06. 2019 20:48

#	Modifying user name:	WinNT
#	Modification time:	15. 06. 2019 20:48

#	Program:	/corina/corina34_cracker 3.40 0067  02.08.2006

@<TRIPOS>MOLECULE
ASD04162006
  39   42    0    0    0
SMALL
NO_CHARGES


@<TRIPOS>ATOM
   1 C1             0.1561     1.1173     0.8522 C.ar    
   2 C2             0.0018    -0.0028     0.0481 C.ar    
   3 C3             1.0395    -0.4166    -0.7802 C.ar    
   4 C4             2.2321     0.2924    -0.8032 C.ar    
   5 C5             2.3849     1.4209     0.0076 C.ar    
   6 C6             1.3394     1.8273     0.8345 C.ar    
   7 O7            -1.1666    -0.6980     0.0702 O.3     
   8 O8             0.8856    -1.5163    -1.5672 O.3     
   9 O9             3.2489    -0.1095    -1.6114 O.3     
  10 C10            3.6565     2.1830    -0.0115 C.2     
  11 C11            3.7843     3.5903    -0.1147 C.2     
  12 C12            5.1134     3.8839    -0.0964 C.2     
  13 N13            5.7925     2.7217     0.0128 N.pl3   
  14 N14            4.8665     1.6731     0.0700 N.2     
  15 C15            2.6704     4.5677    -0.2235 C.2     
  16 C16            1.6498     4.5604    -1.1938 C.2     
  17 N17            0.8576     5.5745    -0.9636 N.2     
  18 N18            1.3351     6.2677     0.1555 N.pl3   
  19 C19            2.4484     5.6303     0.6016 C.2     
  20 C20            0.7616     7.4153     0.7195 C.ar    
  21 C21           -0.3867     7.9639     0.1643 C.ar    
  22 C22           -0.9498     9.0947     0.7227 C.ar    
  23 C23           -0.3711     9.6804     1.8337 C.ar    
  24 C24            0.7727     9.1367     2.3887 C.ar    
  25 C25            1.3373     8.0027     1.8382 C.ar    
  26 H26           -0.6541     1.4372     1.4907 H       
  27 H27            1.4549     2.6990     1.4615 H       
  28 H28           -1.8200    -0.3896    -0.5725 H       
  29 H29            0.5257    -1.3251    -2.4441 H       
  30 H30            3.2279     0.2833    -2.4948 H       
  31 H31            5.5477     4.8708    -0.1587 H       
  32 H32            6.7574     2.6293     0.0489 H       
  33 H33            1.5405     3.8406    -1.9915 H       
  34 H34            3.0515     5.9168     1.4505 H       
  35 H35           -0.8389     7.5071    -0.7036 H       
  36 H36           -1.8428     9.5221     0.2911 H       
  37 H37           -0.8133    10.5646     2.2686 H       
  38 H38            1.2226     9.5966     3.2562 H       
  39 H39            2.2305     7.5783     2.2723 H       
@<TRIPOS>BOND
   1    1    2 ar
   2    1    6 ar
   3    1   26 1
   4    2    3 ar
   5    2    7 1
   6    3    4 ar
   7    3    8 1
   8    4    5 ar
   9    4    9 1
  10    5    6 ar
  11    5   10 1
  12    6   27 1
  13    7   28 1
  14    8   29 1
  15    9   30 1
  16   10   11 1
  17   10   14 2
  18   11   12 2
  19   11   15 1
  20   12   13 1
  21   12   31 1
  22   13   14 1
  23   13   32 1
  24   15   16 1
  25   15   19 2
  26   16   17 2
  27   16   33 1
  28   17   18 1
  29   18   19 1
  30   18   20 1
  31   19   34 1
  32   20   21 ar
  33   20   25 ar
  34   21   22 ar
  35   21   35 1
  36   22   23 ar
  37   22   36 1
  38   23   24 ar
  39   23   37 1
  40   24   25 ar
  41   24   38 1
  42   25   39 1

#	End of record

