#	Name: ASD04170026
#	Creating user name:	WinNT
#	Creation time:	15. 06. 2019 20:48

#	Modifying user name:	WinNT
#	Modification time:	15. 06. 2019 20:48

#	Program:	/corina/corina34_cracker 3.40 0067  02.08.2006

@<TRIPOS>MOLECULE
ASD04170026
  39   41    0    0    0
SMALL
NO_CHARGES


@<TRIPOS>ATOM
   1 O1             0.7525    -0.3414     1.1704 O.3     
   2 C2             0.0021    -0.0041     0.0020 C.3     
   3 C3             0.7910    -0.4079    -1.2451 C.3     
   4 C4             0.0583     0.0903    -2.4929 C.3     
   5 C5             0.9827     1.0429    -3.2625 C.3     
   6 C6             2.2628     0.2818    -3.6317 C.3     
   7 C7             2.9247    -0.2228    -2.3475 C.3     
   8 N8             2.1318     0.1788    -1.1832 N.4     
   9 C9             2.0522     1.6386    -1.0918 C.3     
  10 C10            1.3614     2.2046    -2.3345 C.3     
  11 C11           -1.3150    -0.7362     0.0222 C.ar    
  12 C12           -2.4693    -0.0935    -0.3843 C.ar    
  13 C13           -3.6774    -0.7651    -0.3658 C.ar    
  14 C14           -3.7311    -2.0796     0.0588 C.ar    
  15 C15           -2.5766    -2.7225     0.4644 C.ar    
  16 C16           -1.3678    -2.0523     0.4418 C.ar    
  17 C17           -5.0483    -2.8114     0.0799 C.3     
  18 H18            0.9064    -1.2900     1.2787 H       
  19 H19           -0.1798     1.0705    -0.0152 H       
  20 H20            0.8747    -1.4939    -1.2843 H       
  21 H21           -0.2019    -0.7575    -3.1266 H       
  22 H22           -0.8476     0.6197    -2.1976 H       
  23 H23            0.4862     1.4058    -4.1625 H       
  24 H24            2.0129    -0.5650    -4.2709 H       
  25 H25            2.9460     0.9493    -4.1569 H       
  26 H26            2.9947    -1.3101    -2.3798 H       
  27 H27            3.9261     0.2001    -2.2665 H       
  28 H28            2.5910    -0.1613    -0.3516 H       
  29 H29            1.4831     1.9149    -0.2042 H       
  30 H30            3.0582     2.0517    -1.0174 H       
  31 H31            2.0406     2.8806    -2.8540 H       
  32 H32            0.4617     2.7440    -2.0385 H       
  33 H33           -2.4274     0.9334    -0.7161 H       
  34 H34           -4.5794    -0.2628    -0.6827 H       
  35 H35           -2.6185    -3.7494     0.7965 H       
  36 H36           -0.4658    -2.5546     0.7587 H       
  37 H37           -5.2047    -3.3058    -0.8788 H       
  38 H38           -5.0372    -3.5565     0.8754 H       
  39 H39           -5.8557    -2.1012     0.2585 H       
@<TRIPOS>BOND
   1    1    2 1
   2    1   18 1
   3    2    3 1
   4    2   11 1
   5    2   19 1
   6    3    4 1
   7    3    8 1
   8    3   20 1
   9    4    5 1
  10    4   21 1
  11    4   22 1
  12    5    6 1
  13    5   10 1
  14    5   23 1
  15    6    7 1
  16    6   24 1
  17    6   25 1
  18    7    8 1
  19    7   26 1
  20    7   27 1
  21    8    9 1
  22    8   28 1
  23    9   10 1
  24    9   29 1
  25    9   30 1
  26   10   31 1
  27   10   32 1
  28   11   12 ar
  29   11   16 ar
  30   12   13 ar
  31   12   33 1
  32   13   14 ar
  33   13   34 1
  34   14   15 ar
  35   14   17 1
  36   15   16 ar
  37   15   35 1
  38   16   36 1
  39   17   37 1
  40   17   38 1
  41   17   39 1

#	End of record

