#	Name: ASD02562003
#	Creating user name:	WinNT
#	Creation time:	15. 06. 2019 20:25

#	Modifying user name:	WinNT
#	Modification time:	15. 06. 2019 20:25

#	Program:	/corina/corina34_cracker 3.40 0067  02.08.2006

@<TRIPOS>MOLECULE
ASD02562003
  64   66    0    0    0
SMALL
NO_CHARGES


@<TRIPOS>ATOM
   1 C1            -0.0167     1.3829     0.0096 C.ar    
   2 C2             0.0021    -0.0041     0.0020 C.ar    
   3 C3            -1.1798    -0.7143     0.0090 C.ar    
   4 C4            -2.4038    -0.0431     0.0238 C.ar    
   5 C5            -2.4351     1.3472     0.0320 C.ar    
   6 C6            -1.2410     2.0667     0.0308 C.ar    
   7 C7             1.3187    -0.7371    -0.0144 C.3     
   8 C8            -1.2652     3.5415     0.0395 C.2     
   9 C9            -3.6711    -0.8130     0.0302 C.2     
  10 C10           -4.5966    -0.7271    -1.1250 C.ar    
  11 C11           -3.9795    -1.5855     1.0789 C.2     
  12 C12           -3.0389    -1.6729     2.2530 C.3     
  13 C13           -3.7904    -1.3139     3.5364 C.3     
  14 C14           -2.8354    -1.4025     4.7285 C.3     
  15 C15           -3.5757    -1.0490     5.9926 C.2     
  16 C16           -5.8613    -0.1655    -0.9651 C.ar    
  17 C17           -6.7196    -0.0883    -2.0479 C.ar    
  18 C18           -6.3201    -0.5708    -3.2952 C.ar    
  19 C19           -5.0599    -1.1304    -3.4499 C.ar    
  20 C20           -4.1996    -1.2035    -2.3752 C.ar    
  21 C21           -4.6282    -1.6521    -4.7962 C.3     
  22 O22           -7.3492    -0.3656    -4.1538 O.3     
  23 C23           -8.3625     0.2196    -3.4965 C.2     
  24 N24           -8.0149     0.4048    -2.2077 N.am    
  25 O25           -9.4293     0.5343    -3.9880 O.2     
  26 C26           -8.8454     1.0124    -1.1650 C.3     
  27 Cl27          -2.7827     4.3847     0.0512 Cl      
  28 N28           -0.1538     4.2078     0.0384 N.2     
  29 C29           -0.1778     5.6726     0.0471 C.3     
  30 Cl30          -2.7456    -1.0624     7.5172 Cl      
  31 N31           -4.8163    -0.7388     5.9422 N.2     
  32 O32           -5.5118    -0.4066     7.1300 O.3     
  33 C33           -6.8884    -0.0817     6.9259 C.3     
  34 O34            1.1487     2.0776     0.0022 O.3     
  35 C35            1.6938     2.4166    -1.2745 C.3     
  36 H36           -1.1585    -1.7941     0.0026 H       
  37 H37           -3.3813     1.8678     0.0434 H       
  38 H38            1.6458    -0.9194     1.0092 H       
  39 H39            1.1982    -1.6887    -0.5323 H       
  40 H40            2.0641    -0.1336    -0.5321 H       
  41 H41           -4.9025    -2.1463     1.0836 H       
  42 H42           -2.6494    -2.6878     2.3318 H       
  43 H43           -2.2125    -0.9768     2.1091 H       
  44 H44           -4.1799    -0.2989     3.4576 H       
  45 H45           -4.6168    -2.0100     3.6803 H       
  46 H46           -2.4459    -2.4175     4.8073 H       
  47 H47           -2.0091    -0.7065     4.5845 H       
  48 H48           -6.1709     0.2076    -0.0001 H       
  49 H49           -3.2193    -1.6395    -2.4988 H       
  50 H50           -4.1425    -0.8533    -5.3567 H       
  51 H51           -3.9289    -2.4769    -4.6592 H       
  52 H52           -5.5009    -2.0034    -5.3466 H       
  53 H53           -8.6703     2.0880    -1.1418 H       
  54 H54           -9.8966     0.8200    -1.3797 H       
  55 H55           -8.5874     0.5813    -0.1977 H       
  56 H56            0.8437     6.0528     0.0447 H       
  57 H57           -0.7015     6.0326    -0.8385 H       
  58 H58           -0.6936     6.0222     0.9414 H       
  59 H59           -6.9640     0.7765     6.2581 H       
  60 H60           -7.4009    -0.9346     6.4809 H       
  61 H61           -7.3502     0.1608     7.8830 H       
  62 H62            1.8926     1.5052    -1.8383 H       
  63 H63            0.9813     3.0341    -1.8214 H       
  64 H64            2.6234     2.9692    -1.1375 H       
@<TRIPOS>BOND
   1    1    2 ar
   2    1   34 1
   3    1    6 ar
   4    2    3 ar
   5    2    7 1
   6    3    4 ar
   7    3   36 1
   8    4    5 ar
   9    4    9 1
  10    5    6 ar
  11    5   37 1
  12    6    8 1
  13    7   38 1
  14    7   39 1
  15    7   40 1
  16    8   27 1
  17    8   28 2
  18    9   10 1
  19    9   11 2
  20   10   16 ar
  21   10   20 ar
  22   11   12 1
  23   11   41 1
  24   12   13 1
  25   12   42 1
  26   12   43 1
  27   13   14 1
  28   13   44 1
  29   13   45 1
  30   14   15 1
  31   14   46 1
  32   14   47 1
  33   15   30 1
  34   15   31 2
  35   16   17 ar
  36   16   48 1
  37   17   18 ar
  38   17   24 1
  39   18   19 ar
  40   18   22 1
  41   19   20 ar
  42   19   21 1
  43   20   49 1
  44   21   50 1
  45   21   51 1
  46   21   52 1
  47   22   23 1
  48   23   25 2
  49   23   24 am
  50   24   26 1
  51   26   53 1
  52   26   54 1
  53   26   55 1
  54   28   29 1
  55   29   56 1
  56   29   57 1
  57   29   58 1
  58   31   32 1
  59   32   33 1
  60   33   59 1
  61   33   60 1
  62   33   61 1
  63   34   35 1
  64   35   62 1
  65   35   63 1
  66   35   64 1

#	End of record

