#	Name: ASD01903289
#	Creating user name:	WinNT
#	Creation time:	15. 06. 2019 19:54

#	Modifying user name:	WinNT
#	Modification time:	15. 06. 2019 19:54

#	Program:	/corina/corina34_cracker 3.40 0067  02.08.2006

@<TRIPOS>MOLECULE
ASD01903289
  42   45    0    0    0
SMALL
NO_CHARGES


@<TRIPOS>ATOM
   1 C1             0.0313     1.3112     0.0786 C.ar    
   2 C2            -1.0992     1.6197    -0.6606 C.ar    
   3 C3            -1.0986     2.7498    -1.4636 C.ar    
   4 C4             0.0421     3.5359    -1.4978 C.ar    
   5 C5             1.1428     3.1651    -0.7281 C.ar    
   6 N6             1.1010     2.0748     0.0277 N.ar    
   7 C7             2.3697     3.9946    -0.7535 C.2     
   8 O8             2.4135     4.9939    -1.4438 O.2     
   9 N9             3.4376     3.6411    -0.0111 N.am    
  10 C10            4.6295     4.3682    -0.1089 C.ar    
  11 C11            4.5904     5.7426    -0.3042 C.ar    
  12 C12            5.7661     6.4603    -0.4002 C.ar    
  13 C13            6.9875     5.8086    -0.3017 C.ar    
  14 C14            7.0275     4.4333    -0.1063 C.ar    
  15 C15            5.8516     3.7160    -0.0049 C.ar    
  16 N16            8.1821     6.5376    -0.4052 N.am    
  17 C17            8.8299     7.0891     0.6369 C.2     
  18 C18           10.0403     7.7708     0.1317 C.ar    
  19 C19           10.0404     7.5725    -1.2640 C.ar    
  20 C20            8.8332     6.7721    -1.5588 C.2     
  21 O21            8.4789     7.0360     1.7983 O.2     
  22 O22            8.4834     6.3959    -2.6593 O.2     
  23 C23           12.0812     9.0134    -0.0585 C.ar    
  24 C24           12.0809     8.8197    -1.4271 C.ar    
  25 C25           11.0638     8.1001    -2.0348 C.ar    
  26 C26           11.0638     8.4919     0.7253 C.ar    
  27 C27           11.0706     8.7086     2.2166 C.3     
  28 Cl28           8.5551     3.6179     0.0170 Cl      
  29 H29           12.8794     9.5756     0.4033 H       
  30 H30            3.6402     6.2501    -0.3813 H       
  31 H31            0.0327     0.4340     0.7087 H       
  32 H32           -1.9722     0.9859    -0.6120 H       
  33 H33           -1.9673     3.0114    -2.0496 H       
  34 H34            0.0777     4.4231    -2.1126 H       
  35 H35            3.3802     2.8827     0.5909 H       
  36 H36            5.7353     7.5291    -0.5525 H       
  37 H37            5.8822     2.6472     0.1473 H       
  38 H38           12.8784     9.2322    -2.0273 H       
  39 H39           11.0692     7.9510    -3.1044 H       
  40 H40           11.6110     7.8945     2.6996 H       
  41 H41           11.5607     9.6553     2.4439 H       
  42 H42           10.0450     8.7328     2.5849 H       
@<TRIPOS>BOND
   1    1    2 ar
   2    1    6 ar
   3    1   31 1
   4    2    3 ar
   5    2   32 1
   6    3    4 ar
   7    3   33 1
   8    4    5 ar
   9    4   34 1
  10    5    6 ar
  11    5    7 1
  12    7    8 2
  13    7    9 am
  14    9   10 1
  15    9   35 1
  16   10   11 ar
  17   10   15 ar
  18   11   12 ar
  19   11   30 1
  20   12   13 ar
  21   12   36 1
  22   13   14 ar
  23   13   16 1
  24   14   15 ar
  25   14   28 1
  26   15   37 1
  27   16   17 am
  28   16   20 am
  29   17   18 1
  30   17   21 2
  31   18   19 ar
  32   18   26 ar
  33   19   20 1
  34   19   25 ar
  35   20   22 2
  36   23   24 ar
  37   23   29 1
  38   23   26 ar
  39   24   25 ar
  40   24   38 1
  41   25   39 1
  42   26   27 1
  43   27   40 1
  44   27   41 1
  45   27   42 1

#	End of record

