#	Name: ASD02910002
#	Creating user name:	WinNT
#	Creation time:	15. 06. 2019 20:26

#	Modifying user name:	WinNT
#	Modification time:	15. 06. 2019 20:26

#	Program:	/corina/corina34_cracker 3.40 0067  02.08.2006

@<TRIPOS>MOLECULE
ASD02910002
  52   54    0    0    0
SMALL
NO_CHARGES


@<TRIPOS>ATOM
   1 C1            -0.0170     1.4007     0.0097 C.ar    
   2 C2             0.0021    -0.0041     0.0020 C.ar    
   3 N3            -1.1507    -0.6658     0.0101 N.ar    
   4 C4            -2.2961    -0.0178     0.0252 C.ar    
   5 N5            -2.3644     1.3012     0.0329 N.ar    
   6 C6            -1.2648     2.0472     0.0302 C.ar    
   7 N7             1.2719     1.8175    -0.0003 N.2     
   8 C8             2.0616     0.7832    -0.0134 C.2     
   9 N9             1.3258    -0.3643    -0.0126 N.pl3   
  10 C10            1.8520    -1.7315    -0.0245 C.3     
  11 C11            1.9162    -2.2790    -1.4731 C.3     
  12 N12           -1.3463     3.4286     0.0389 N.pl3   
  13 C13            3.0194    -3.3595    -1.3629 C.3     
  14 C14            3.8115    -2.9632    -0.1019 C.3     
  15 O15            3.2308    -1.7494     0.4037 O.3     
  16 O16            0.6681    -2.8616    -1.8538 O.3     
  17 O17            2.4370    -4.6544    -1.2013 O.3     
  18 C18            5.2795    -2.7268    -0.4625 C.3     
  19 O19            6.0279    -2.4743     0.7284 O.3     
  20 P20            7.6112    -2.1824     0.7237 P.3     
  21 O21            8.1414    -2.0741     2.2400 O.3     
  22 O22            8.3143    -3.2864     0.0328 O.2     
  23 O23            7.8993    -0.7978    -0.0458 O.3     
  24 P24            9.6007    -2.1052     2.9194 P.3     
  25 O25            9.4581    -2.4714     4.4807 O.3     
  26 O26           10.4361    -3.1256     2.2476 O.2     
  27 O27           10.2939    -0.6599     2.7683 O.3     
  28 P28           10.4941    -2.9500     5.6163 P.3     
  29 O29            9.6852    -3.6466     6.8216 O.3     
  30 O30           11.4480    -3.9215     5.0361 O.2     
  31 O31           11.3014    -1.6753     6.1780 O.3     
  32 P32           10.1118    -4.5779     8.0636 P.3     
  33 O33           10.4266    -6.0659     7.5355 O.3     
  34 O34           11.3202    -4.0173     8.7084 O.2     
  35 O35            8.9089    -4.6311     9.1325 O.3     
  36 H36           -3.2147    -0.5858     0.0310 H       
  37 H37            3.1407     0.8274    -0.0238 H       
  38 H38            1.2437    -2.3812     0.6048 H       
  39 H39            2.2076    -1.4955    -2.1725 H       
  40 H40           -2.2135     3.8632     0.0471 H       
  41 H41           -0.5364     3.9623     0.0368 H       
  42 H42            3.6644    -3.3371    -2.2413 H       
  43 H43            3.7341    -3.7512     0.6473 H       
  44 H44            0.6584    -3.2184    -2.7525 H       
  45 H45            1.8793    -4.9300    -1.9417 H       
  46 H46            5.6778    -3.6101    -0.9616 H       
  47 H47            5.3561    -1.8675    -1.1288 H       
  48 H48            7.4687    -0.0293     0.3529 H       
  49 H49            9.7999     0.0588     3.1860 H       
  50 H50           10.7381    -0.9961     6.5736 H       
  51 H51            9.6773    -6.4956     7.1007 H       
  52 H52            9.0967    -5.1758     9.9091 H       
@<TRIPOS>BOND
   1    1    2 ar
   2    1    7 1
   3    1    6 ar
   4    2    3 ar
   5    2    9 1
   6    3    4 ar
   7    4    5 ar
   8    4   36 1
   9    5    6 ar
  10    6   12 1
  11    7    8 2
  12    8    9 1
  13    8   37 1
  14    9   10 1
  15   10   11 1
  16   10   15 1
  17   10   38 1
  18   11   13 1
  19   11   16 1
  20   11   39 1
  21   12   40 1
  22   12   41 1
  23   13   14 1
  24   13   17 1
  25   13   42 1
  26   14   15 1
  27   14   18 1
  28   14   43 1
  29   16   44 1
  30   17   45 1
  31   18   19 1
  32   18   46 1
  33   18   47 1
  34   19   20 1
  35   20   21 1
  36   20   22 2
  37   20   23 1
  38   21   24 1
  39   23   48 1
  40   24   25 1
  41   24   26 2
  42   24   27 1
  43   25   28 1
  44   27   49 1
  45   28   29 1
  46   28   30 2
  47   28   31 1
  48   29   32 1
  49   31   50 1
  50   32   33 1
  51   32   34 2
  52   32   35 1
  53   33   51 1
  54   35   52 1

#	End of record

