#	Name: ASD01100062
#	Creating user name:	WinNT
#	Creation time:	15. 06. 2019 18:58

#	Modifying user name:	WinNT
#	Modification time:	15. 06. 2019 18:58

#	Program:	/corina/corina34_cracker 3.40 0067  02.08.2006

@<TRIPOS>MOLECULE
ASD01100062
  45   46    0    0    0
SMALL
NO_CHARGES


@<TRIPOS>ATOM
   1 C1             0.2703     1.7623    -2.0927 C.ar    
   2 C2            -0.0213     0.4558    -1.7431 C.ar    
   3 C3             0.8594    -0.2613    -0.9531 C.ar    
   4 C4             2.0300     0.3278    -0.5136 C.ar    
   5 C5             2.3208     1.6333    -0.8632 C.ar    
   6 C6             1.4411     2.3503    -1.6526 C.ar    
   7 C7             3.5970     2.2751    -0.3833 C.3     
   8 C8             3.2683     3.3496     0.6551 C.3     
   9 C9             2.7084     2.6868     1.9153 C.3     
  10 C10            4.5400     4.1237     1.0081 C.3     
  11 Cl11          -1.4920    -0.2832    -2.2950 Cl      
  12 C12            4.3116     2.9062    -1.5503 C.2     
  13 N13            5.6356     3.1483    -1.4789 N.am    
  14 O14            3.6953     3.1964    -2.5539 O.2     
  15 C15            6.3146     3.6381    -2.5911 C.2     
  16 N16            5.7794     3.8981    -3.7430 N.2     
  17 C17            6.5805     4.3588    -4.6874 C.2     
  18 C18            7.8652     4.5035    -4.3367 C.2     
  19 S19            8.0353     4.0095    -2.6536 S.3     
  20 C20            2.2279     4.3130     0.0803 C.3     
  21 N21            8.8931     4.9716    -5.1622 N.pl3   
  22 C22            8.6041     5.3548    -6.5463 C.3     
  23 C23           10.2587     5.0785    -4.6424 C.3     
  24 H24           -0.4147     2.3211    -2.7131 H       
  25 H25            0.6322    -1.2811    -0.6795 H       
  26 H26            2.7174    -0.2318     0.1035 H       
  27 H27            1.6689     3.3702    -1.9255 H       
  28 H28            4.2373     1.5173     0.0682 H       
  29 H29            3.4496     2.0005     2.3248 H       
  30 H30            2.4742     3.4523     2.6550 H       
  31 H31            1.8024     2.1353     1.6638 H       
  32 H32            5.0120     4.4834     0.0938 H       
  33 H33            4.2845     4.9720     1.6431 H       
  34 H34            5.2294     3.4672     1.5389 H       
  35 H35            6.1153     2.9812    -0.6525 H       
  36 H36            6.2231     4.6023    -5.6771 H       
  37 H37            1.3030     3.7719    -0.1195 H       
  38 H38            2.0347     5.1099     0.7985 H       
  39 H39            2.6047     4.7434    -0.8474 H       
  40 H40            8.3404     6.4117    -6.5832 H       
  41 H41            9.4849     5.1783    -7.1637 H       
  42 H42            7.7719     4.7594    -6.9219 H       
  43 H43           10.2784     4.7514    -3.6029 H       
  44 H44           10.9230     4.4489    -5.2342 H       
  45 H45           10.5905     6.1150    -4.7035 H       
@<TRIPOS>BOND
   1    1    2 ar
   2    1    6 ar
   3    1   24 1
   4    2    3 ar
   5    2   11 1
   6    3    4 ar
   7    3   25 1
   8    4    5 ar
   9    4   26 1
  10    5    6 ar
  11    5    7 1
  12    6   27 1
  13    7    8 1
  14    7   12 1
  15    7   28 1
  16    8    9 1
  17    8   10 1
  18    8   20 1
  19    9   29 1
  20    9   30 1
  21    9   31 1
  22   10   32 1
  23   10   33 1
  24   10   34 1
  25   12   13 am
  26   12   14 2
  27   13   15 1
  28   13   35 1
  29   15   16 2
  30   15   19 1
  31   16   17 1
  32   17   18 2
  33   17   36 1
  34   18   19 1
  35   18   21 1
  36   20   37 1
  37   20   38 1
  38   20   39 1
  39   21   22 1
  40   21   23 1
  41   22   40 1
  42   22   41 1
  43   22   42 1
  44   23   43 1
  45   23   44 1
  46   23   45 1

#	End of record

