#	Name: ASD04880344
#	Creating user name:	WinNT
#	Creation time:	15. 06. 2019 20:53

#	Modifying user name:	WinNT
#	Modification time:	15. 06. 2019 20:53

#	Program:	/corina/corina34_cracker 3.40 0067  02.08.2006

@<TRIPOS>MOLECULE
ASD04880344
  34   36    0    0    0
SMALL
NO_CHARGES


@<TRIPOS>ATOM
   1 C1            -0.0143     1.3817     0.0537 C.ar    
   2 C2             0.0028     0.0001    -0.0071 C.ar    
   3 C3             1.2040    -0.6781    -0.0368 C.ar    
   4 C4             2.4051     0.0324    -0.0055 C.ar    
   5 C5             2.3833     1.4268     0.0558 C.ar    
   6 C6             1.1740     2.0944     0.0851 C.ar    
   7 C7             3.6948    -0.6888    -0.0366 C.2     
   8 O8             3.7146    -1.9024     0.0363 O.2     
   9 N9             4.8489    -0.0014    -0.1457 N.am    
  10 C10            6.2000    -0.5795    -0.0700 C.3     
  11 N11            4.9575     1.3720    -0.3546 N.2     
  12 C12            6.1708     1.7993    -0.4249 C.2     
  13 C13            7.1256     0.6391    -0.2562 C.3     
  14 C14            6.5673     3.2035    -0.6405 C.ar    
  15 C15            7.9209     3.5483    -0.6994 C.ar    
  16 C16            5.5933     4.1894    -0.7919 C.ar    
  17 C17            5.9773     5.5137    -0.9957 C.ar    
  18 C18            7.3338     5.8443    -1.0470 C.ar    
  19 C19            8.2935     4.8620    -0.9011 C.ar    
  20 F20            1.1498     3.4439     0.1440 F       
  21 C21            4.9839     6.5330    -1.1527 C.1     
  22 N22            4.1957     7.3416    -1.2772 N.1     
  23 H23           -0.9574     1.9076     0.0722 H       
  24 H24           -0.9267    -0.5494    -0.0309 H       
  25 H25            1.2149    -1.7570    -0.0838 H       
  26 H26            3.3092     1.9823     0.0807 H       
  27 H27            6.3655    -1.0417     0.9032 H       
  28 H28            6.3530    -1.3032    -0.8705 H       
  29 H29            7.7507     0.7834     0.6250 H       
  30 H30            7.7414     0.5181    -1.1474 H       
  31 H31            8.6767     2.7852    -0.5864 H       
  32 H32            4.5461     3.9283    -0.7518 H       
  33 H33            7.6326     6.8700    -1.2049 H       
  34 H34            9.3406     5.1235    -0.9413 H       
@<TRIPOS>BOND
   1    1    2 ar
   2    1    6 ar
   3    1   23 1
   4    2    3 ar
   5    2   24 1
   6    3    4 ar
   7    3   25 1
   8    4    5 ar
   9    4    7 1
  10    5    6 ar
  11    5   26 1
  12    6   20 1
  13    7    8 2
  14    7    9 am
  15    9   10 1
  16    9   11 1
  17   10   13 1
  18   10   27 1
  19   10   28 1
  20   11   12 2
  21   12   13 1
  22   12   14 1
  23   13   29 1
  24   13   30 1
  25   14   15 ar
  26   14   16 ar
  27   15   19 ar
  28   15   31 1
  29   16   17 ar
  30   16   32 1
  31   17   18 ar
  32   17   21 1
  33   18   19 ar
  34   18   33 1
  35   19   34 1
  36   21   22 3

#	End of record

