#	Name: ASD01140271
#	Creating user name:	WinNT
#	Creation time:	15. 06. 2019 19:00

#	Modifying user name:	WinNT
#	Modification time:	15. 06. 2019 19:00

#	Program:	/corina/corina34_cracker 3.40 0067  02.08.2006

@<TRIPOS>MOLECULE
ASD01140271
  46   50    0    0    0
SMALL
NO_CHARGES


@<TRIPOS>ATOM
   1 C1             0.0966     1.5572     0.2399 C.ar    
   2 C2             0.0472     0.1737     0.2328 C.ar    
   3 C3             1.2078    -0.5613     0.1552 C.ar    
   4 C4             2.4543     0.0793     0.0823 C.ar    
   5 C5             2.4934     1.4745     0.0657 C.ar    
   6 C6             1.3127     2.2037     0.1563 C.ar    
   7 C7             3.6575    -0.7598     0.0585 C.2     
   8 N8             4.7171    -0.5991    -0.6545 N.2     
   9 C9             4.8441     0.5062    -1.6114 C.3     
  10 C10            4.7474     1.7959    -0.8383 C.2     
  11 N11            3.6936     2.1778    -0.0734 N.pl3   
  12 C12           -1.2831    -0.5301     0.3109 C.3     
  13 C13            4.0122     3.3714     0.4971 C.2     
  14 C14            3.6522    -1.9321     0.9626 C.ar    
  15 C15            5.6782     2.7861    -0.7636 C.2     
  16 N16            5.1893     3.7385     0.0763 N.2     
  17 C17            6.9730     2.8202    -1.4622 C.2     
  18 O18            7.8015     3.8702    -1.2950 O.3     
  19 O19            7.2953     1.9016    -2.1900 O.2     
  20 C20            9.0619     3.8365    -2.0151 C.3     
  21 C21           -2.1493    -0.2687     1.5447 C.3     
  22 C22           -2.5443     0.3278     0.1923 C.3     
  23 C23            3.6662    -3.2234     0.4355 C.ar    
  24 C24            3.6612    -4.3119     1.2830 C.ar    
  25 C25            3.6417    -4.1265     2.6541 C.ar    
  26 C26            3.6272    -2.8500     3.1855 C.ar    
  27 C27            3.6388    -1.7500     2.3480 C.ar    
  28 F28            3.6251    -0.5029     2.8674 F       
  29 H29           -0.8165     2.1302     0.3062 H       
  30 H30            1.1591    -1.6402     0.1508 H       
  31 H31            1.3479     3.2831     0.1609 H       
  32 H32            5.8088     0.4493    -2.1156 H       
  33 H33            4.0395     0.4541    -2.3448 H       
  34 H34           -1.3119    -1.5303    -0.1214 H       
  35 H35            3.3909     3.9239     1.1864 H       
  36 H36            9.6331     2.9608    -1.7069 H       
  37 H37            8.8672     3.7848    -3.0863 H       
  38 H38            9.6317     4.7387    -1.7926 H       
  39 H39           -2.7482    -1.0967     1.9238 H       
  40 H40           -1.7570     0.4124     2.2999 H       
  41 H41           -2.4119     1.4014     0.0578 H       
  42 H42           -3.4032    -0.1078    -0.3184 H       
  43 H43            3.6807    -3.3708    -0.6343 H       
  44 H44            3.6721    -5.3119     0.8750 H       
  45 H45            3.6374    -4.9827     3.3123 H       
  46 H46            3.6113    -2.7121     4.2566 H       
@<TRIPOS>BOND
   1    1    2 ar
   2    1    6 ar
   3    1   29 1
   4    2    3 ar
   5    2   12 1
   6    3    4 ar
   7    3   30 1
   8    4    5 ar
   9    4    7 1
  10    5    6 ar
  11    5   11 1
  12    6   31 1
  13    7    8 2
  14    7   14 1
  15    8    9 1
  16    9   10 1
  17    9   32 1
  18    9   33 1
  19   10   11 1
  20   10   15 2
  21   11   13 1
  22   12   21 1
  23   12   22 1
  24   12   34 1
  25   13   16 2
  26   13   35 1
  27   14   23 ar
  28   14   27 ar
  29   15   16 1
  30   15   17 1
  31   17   18 1
  32   17   19 2
  33   18   20 1
  34   20   36 1
  35   20   37 1
  36   20   38 1
  37   21   22 1
  38   21   39 1
  39   21   40 1
  40   22   41 1
  41   22   42 1
  42   23   24 ar
  43   23   43 1
  44   24   25 ar
  45   24   44 1
  46   25   26 ar
  47   25   45 1
  48   26   27 ar
  49   26   46 1
  50   27   28 1

#	End of record

