#	Name: ASD02408421
#	Creating user name:	WinNT
#	Creation time:	15. 06. 2019 20:21

#	Modifying user name:	WinNT
#	Modification time:	15. 06. 2019 20:21

#	Program:	/corina/corina34_cracker 3.40 0067  02.08.2006

@<TRIPOS>MOLECULE
ASD02408421
  41   44    0    0    0
SMALL
NO_CHARGES


@<TRIPOS>ATOM
   1 N1            -0.0163     1.3527     0.0095 N.am    
   2 C2             0.0021    -0.0041     0.0020 C.2     
   3 N3             1.1021    -0.6986    -0.0118 N.2     
   4 C4             2.3095    -0.1135    -0.0201 C.2     
   5 C5             2.3912     1.2882    -0.0138 C.2     
   6 C6             1.1433     2.0510     0.0022 C.2     
   7 N7             3.5893    -0.5767    -0.0344 N.pl3   
   8 N8             4.4547     0.5245    -0.0369 N.2     
   9 C9             3.7573     1.6273    -0.0249 C.2     
  10 C10           -1.3127    -0.7406     0.0106 C.3     
  11 C11           -1.0527    -2.2483     0.0000 C.3     
  12 C12            3.9745    -1.9233    -0.0444 C.ar    
  13 C13            3.0107    -2.9227    -0.0400 C.ar    
  14 C14            3.3939    -4.2498    -0.0498 C.ar    
  15 C15            4.7356    -4.5834    -0.0640 C.ar    
  16 C16            5.6981    -3.5902    -0.0680 C.ar    
  17 C17            5.3214    -2.2616    -0.0645 C.ar    
  18 O18            1.1474     3.2694     0.0079 O.2     
  19 C19           -0.3933    -2.6778     1.2899 C.2     
  20 C20           -0.9430    -3.7646     1.7596 C.2     
  21 C21           -2.0605    -4.2411     0.8611 C.3     
  22 C22           -2.3893    -3.0251    -0.0359 C.3     
  23 C23            6.3708    -1.1801    -0.0694 C.3     
  24 F24            7.6422    -1.7639    -0.0772 F       
  25 F25            6.2157    -0.3850    -1.2100 F       
  26 F26            6.2288    -0.3873     1.0746 F       
  27 H27           -0.8640     1.8242     0.0160 H       
  28 H28            4.1596     2.6295    -0.0236 H       
  29 H29           -1.8723    -0.4746     0.9074 H       
  30 H30           -1.8892    -0.4651    -0.8725 H       
  31 H31           -0.4308    -2.5196    -0.8530 H       
  32 H32            1.9625    -2.6628    -0.0285 H       
  33 H33            2.6446    -5.0276    -0.0460 H       
  34 H34            5.0326    -5.6217    -0.0717 H       
  35 H35            6.7453    -3.8539    -0.0784 H       
  36 H36            0.4254    -2.1545     1.7613 H       
  37 H37           -0.6386    -4.2586     2.6705 H       
  38 H38           -1.7267    -5.0821     0.2533 H       
  39 H39           -2.9309    -4.5219     1.4541 H       
  40 H40           -3.1983    -2.4318     0.3904 H       
  41 H41           -2.6309    -3.3414    -1.0506 H       
@<TRIPOS>BOND
   1    1    2 1
   2    1    6 am
   3    1   27 1
   4    2    3 2
   5    2   10 1
   6    3    4 1
   7    4    5 2
   8    4    7 1
   9    5    6 1
  10    5    9 1
  11    6   18 2
  12    7    8 1
  13    7   12 1
  14    8    9 2
  15    9   28 1
  16   10   11 1
  17   10   29 1
  18   10   30 1
  19   11   19 1
  20   11   22 1
  21   11   31 1
  22   12   13 ar
  23   12   17 ar
  24   13   14 ar
  25   13   32 1
  26   14   15 ar
  27   14   33 1
  28   15   16 ar
  29   15   34 1
  30   16   17 ar
  31   16   35 1
  32   17   23 1
  33   19   20 2
  34   19   36 1
  35   20   21 1
  36   20   37 1
  37   21   22 1
  38   21   38 1
  39   21   39 1
  40   22   40 1
  41   22   41 1
  42   23   24 1
  43   23   25 1
  44   23   26 1

#	End of record

