#	Name: ASD01900887
#	Creating user name:	WinNT
#	Creation time:	15. 06. 2019 19:52

#	Modifying user name:	WinNT
#	Modification time:	15. 06. 2019 19:52

#	Program:	/corina/corina34_cracker 3.40 0067  02.08.2006

@<TRIPOS>MOLECULE
ASD01900887
  44   47    0    0    0
SMALL
NO_CHARGES


@<TRIPOS>ATOM
   1 C1            -0.0167     1.3777     0.0096 C.ar    
   2 C2             0.0021    -0.0041     0.0020 C.ar    
   3 C3            -1.1856    -0.7119     0.0095 C.ar    
   4 C4            -2.3923    -0.0380     0.0241 C.ar    
   5 C5            -2.4123     1.3442     0.0313 C.ar    
   6 C6            -1.2243     2.0529     0.0305 C.ar    
   7 Cl7           -1.2486     3.7887     0.0401 Cl      
   8 C8             1.2779     2.1490     0.0014 C.3     
   9 S9             1.7811     2.4677    -1.7121 S.o2    
  10 C10            3.2904     3.3653    -1.5674 C.2     
  11 O11            2.1537     1.2569    -2.3557 O.2     
  12 O12            0.8876     3.3822    -2.3322 O.2     
  13 C13            4.5146     2.8367    -1.5133 C.2     
  14 N14            5.4894     3.7198    -1.4051 N.2     
  15 C15            5.1472     4.9697    -1.3651 C.2     
  16 S16            3.4476     5.1176    -1.4766 S.3     
  17 C17            4.7638     1.3515    -1.5711 C.3     
  18 N18            6.0327     6.0337    -1.2538 N.am    
  19 C19            5.5665     7.2978    -1.2212 C.2     
  20 O20            4.3712     7.5066    -1.2894 O.2     
  21 C21            6.5109     8.4326    -1.1025 C.ar    
  22 N22            7.8153     8.1984    -1.0285 N.ar    
  23 C23            8.6872     9.1774    -0.9227 C.ar    
  24 C24            8.2723    10.4988    -0.8844 C.ar    
  25 C25            6.9186    10.7886    -0.9589 C.ar    
  26 C26            6.0230     9.7375    -1.0752 C.ar    
  27 C27            5.6254     0.8240    -2.7202 C.3     
  28 C28            6.1877     0.8629    -1.2978 C.3     
  29 H29            0.9446    -0.5312    -0.0101 H       
  30 H30           -1.1705    -1.7918     0.0036 H       
  31 H31           -3.3197    -0.5914     0.0296 H       
  32 H32           -3.3553     1.8707     0.0420 H       
  33 H33            1.1395     3.0968     0.5217 H       
  34 H34            2.0505     1.5677     0.5048 H       
  35 H35            3.9414     0.7232    -1.2292 H       
  36 H36            6.9867     5.8671    -1.1994 H       
  37 H37            9.7409     8.9481    -0.8645 H       
  38 H38            8.9964    11.2953    -0.7970 H       
  39 H39            6.5702    11.8105    -0.9307 H       
  40 H40            4.9614     9.9267    -1.1357 H       
  41 H41            5.3701    -0.1516    -3.1339 H       
  42 H42            6.0120     1.5511    -3.4343 H       
  43 H43            6.9442     1.6157    -1.0761 H       
  44 H44            6.3023    -0.0870    -0.7757 H       
@<TRIPOS>BOND
   1    1    2 ar
   2    1    8 1
   3    1    6 ar
   4    2    3 ar
   5    2   29 1
   6    3    4 ar
   7    3   30 1
   8    4    5 ar
   9    4   31 1
  10    5    6 ar
  11    5   32 1
  12    6    7 1
  13    8    9 1
  14    8   33 1
  15    8   34 1
  16    9   10 1
  17    9   11 2
  18    9   12 2
  19   10   13 2
  20   10   16 1
  21   13   14 1
  22   13   17 1
  23   14   15 2
  24   15   16 1
  25   15   18 1
  26   17   27 1
  27   17   28 1
  28   17   35 1
  29   18   19 am
  30   18   36 1
  31   19   20 2
  32   19   21 1
  33   21   22 ar
  34   21   26 ar
  35   22   23 ar
  36   23   24 ar
  37   23   37 1
  38   24   25 ar
  39   24   38 1
  40   25   26 ar
  41   25   39 1
  42   26   40 1
  43   27   28 1
  44   27   41 1
  45   27   42 1
  46   28   43 1
  47   28   44 1

#	End of record

