#	Name: ASD01410540
#	Creating user name:	WinNT
#	Creation time:	15. 06. 2019 19:18

#	Modifying user name:	WinNT
#	Modification time:	15. 06. 2019 19:18

#	Program:	/corina/corina34_cracker 3.40 0067  02.08.2006

@<TRIPOS>MOLECULE
ASD01410540
  77   80    0    0    0
SMALL
NO_CHARGES


@<TRIPOS>ATOM
   1 C1             4.4957     6.7403    -1.9909 C.ar    
   2 C2             5.4610     6.4529    -2.9538 C.ar    
   3 C3             6.2405     5.3143    -2.8103 C.ar    
   4 N4             6.0749     4.5096    -1.7781 N.ar    
   5 C5             5.1686     4.7519    -0.8460 C.ar    
   6 C6             4.3522     5.8726    -0.9226 C.ar    
   7 O7             5.0348     3.8947     0.1983 O.3     
   8 C8             5.7778     2.7556     0.1886 C.ar    
   9 C9             7.1042     2.7882     0.6119 C.ar    
  10 C10            7.8675     1.6354     0.6056 C.ar    
  11 C11            7.3151     0.4374     0.1772 C.ar    
  12 C12            5.9785     0.3988    -0.2501 C.ar    
  13 C13            5.2129     1.5686    -0.2357 C.ar    
  14 F14            7.6478     3.9521     1.0303 F       
  15 N15            8.0851    -0.7247     0.1706 N.am    
  16 C16            8.0422    -1.5675     1.2214 C.2     
  17 C17            8.9409    -1.0298    -0.9786 C.3     
  18 O18            8.6430    -2.6203     1.1794 O.2     
  19 C19            7.2476    -1.2019     2.4486 C.3     
  20 N20            5.6415     7.3017    -4.0520 N.3     
  21 C21            7.8723    -1.8662     3.6772 C.3     
  22 C22            7.0656    -1.4950     4.9232 C.3     
  23 C23            5.6233    -1.9787     4.7598 C.3     
  24 C24            4.9987    -1.3144     3.5312 C.3     
  25 C25            5.8053    -1.6856     2.2852 C.3     
  26 C26            4.8167    -1.6075     6.0057 C.3     
  27 C27            8.6646    -0.0271    -2.1007 C.3     
  28 O28            7.3420    -0.2272    -2.6033 O.3     
  29 C29            6.9811     0.6635    -3.6609 C.3     
  30 C30           10.4096    -0.9350    -0.5602 C.3     
  31 O31           10.7046    -1.9696     0.3803 O.3     
  32 C32           12.0584    -1.9705     0.8378 C.3     
  33 C33            5.2812     8.6906    -3.7113 C.3     
  34 C34            6.5153     9.1460    -4.5026 C.3     
  35 C35            7.0436     7.7485    -4.1499 C.3     
  36 F36            6.2803     9.3418    -5.8678 F       
  37 F37            7.2242    10.1939    -3.9054 F       
  38 C38            3.3226     6.1406     0.1447 C.3     
  39 F39            2.6337     7.3201    -0.1575 F       
  40 F40            2.4191     5.0738     0.1994 F       
  41 F41            3.9591     6.2766     1.3831 F       
  42 C42            5.3841    -0.8689    -0.7064 C.2     
  43 O43            6.0231    -1.9001    -0.6351 O.2     
  44 O44            4.1313    -0.8854    -1.2032 O.3     
  45 H45            3.8772     7.6218    -2.0740 H       
  46 H46            6.9910     5.0839    -3.5520 H       
  47 H47            8.8956     1.6679     0.9345 H       
  48 H48            4.1839     1.5457    -0.5628 H       
  49 H49            8.7283    -2.0386    -1.3324 H       
  50 H50            7.2555    -0.1196     2.5774 H       
  51 H51            7.8644    -2.9486     3.5484 H       
  52 H52            8.8998    -1.5216     3.7936 H       
  53 H53            7.5106    -1.9683     5.7984 H       
  54 H54            7.0735    -0.4127     5.0520 H       
  55 H55            5.6155    -3.0611     4.6310 H       
  56 H56            3.9712    -1.6590     3.4148 H       
  57 H57            5.0065    -0.2321     3.6600 H       
  58 H58            5.3603    -1.2123     1.4100 H       
  59 H59            5.7975    -2.7679     2.1565 H       
  60 H60            4.8245    -0.5252     6.1345 H       
  61 H61            3.7891    -1.9521     5.8893 H       
  62 H62            5.2617    -2.0808     6.8810 H       
  63 H63            8.7561     0.9872    -1.7123 H       
  64 H64            9.3852    -0.1744    -2.9052 H       
  65 H65            7.0377     1.6922    -3.3048 H       
  66 H66            7.6667     0.5305    -4.4978 H       
  67 H67            5.9637     0.4473    -3.9868 H       
  68 H68           11.0456    -1.0497    -1.4380 H       
  69 H69           10.5948     0.0364    -0.1018 H       
  70 H70           12.7286    -2.1067    -0.0110 H       
  71 H71           12.2778    -1.0206     1.3252 H       
  72 H72           12.2014    -2.7849     1.5480 H       
  73 H73            4.3387     9.0153    -4.1520 H       
  74 H74            5.3452     8.9067    -2.6448 H       
  75 H75            7.5779     7.7131    -3.2005 H       
  76 H76            7.5946     7.2747    -4.9623 H       
  77 H77            3.7840    -1.7411    -1.4900 H       
@<TRIPOS>BOND
   1    1    2 ar
   2    1    6 ar
   3    1   45 1
   4    2    3 ar
   5    2   20 1
   6    3    4 ar
   7    3   46 1
   8    4    5 ar
   9    5    6 ar
  10    5    7 1
  11    6   38 1
  12    7    8 1
  13    8    9 ar
  14    8   13 ar
  15    9   10 ar
  16    9   14 1
  17   10   11 ar
  18   10   47 1
  19   11   12 ar
  20   11   15 1
  21   12   13 ar
  22   12   42 1
  23   13   48 1
  24   15   16 am
  25   15   17 1
  26   16   18 2
  27   16   19 1
  28   17   27 1
  29   17   30 1
  30   17   49 1
  31   19   21 1
  32   19   25 1
  33   19   50 1
  34   20   33 1
  35   20   35 1
  36   21   22 1
  37   21   51 1
  38   21   52 1
  39   22   23 1
  40   22   53 1
  41   22   54 1
  42   23   24 1
  43   23   26 1
  44   23   55 1
  45   24   25 1
  46   24   56 1
  47   24   57 1
  48   25   58 1
  49   25   59 1
  50   26   60 1
  51   26   61 1
  52   26   62 1
  53   27   28 1
  54   27   63 1
  55   27   64 1
  56   28   29 1
  57   29   65 1
  58   29   66 1
  59   29   67 1
  60   30   31 1
  61   30   68 1
  62   30   69 1
  63   31   32 1
  64   32   70 1
  65   32   71 1
  66   32   72 1
  67   33   34 1
  68   33   73 1
  69   33   74 1
  70   34   35 1
  71   34   36 1
  72   34   37 1
  73   35   75 1
  74   35   76 1
  75   38   39 1
  76   38   40 1
  77   38   41 1
  78   42   43 2
  79   42   44 1
  80   44   77 1

#	End of record

