#	Name: ASD01913547
#	Creating user name:	WinNT
#	Creation time:	15. 06. 2019 20:01

#	Modifying user name:	WinNT
#	Modification time:	15. 06. 2019 20:01

#	Program:	/corina/corina34_cracker 3.40 0067  02.08.2006

@<TRIPOS>MOLECULE
ASD01913547
  34   36    0    0    0
SMALL
NO_CHARGES


@<TRIPOS>ATOM
   1 C1             0.9906    -0.0728    -0.9740 C.ar    
   2 C2             0.0774    -0.0532     0.0753 C.ar    
   3 C3             0.3978     0.6390     1.2345 C.ar    
   4 N4             1.5493     1.2708     1.3441 N.ar    
   5 C5             2.4366     1.2719     0.3684 C.ar    
   6 C6             2.1894     0.6043    -0.8163 C.ar    
   7 C7            -1.0927    -2.0573    -0.1145 C.ar    
   8 C8             0.1123    -2.7510    -0.1812 C.ar    
   9 C9             0.0947    -4.1323    -0.2572 C.ar    
  10 N10           -1.0417    -4.7956    -0.2671 N.ar    
  11 C11           -2.2146    -4.1750    -0.2053 C.ar    
  12 C12           -2.2785    -2.7879    -0.1270 C.ar    
  13 C13           -3.4660    -4.9677    -0.2197 C.2     
  14 N14           -3.4112    -6.3122    -0.2954 N.am    
  15 O15           -1.1115    -0.7025    -0.0335 O.3     
  16 C16           -4.5796    -7.0652    -0.1834 C.ar    
  17 O17           -4.5419    -4.4057    -0.1633 O.2     
  18 C18           -4.6750    -8.3284    -0.7660 C.ar    
  19 C19           -5.8479    -9.0418    -0.6329 C.ar    
  20 N20           -6.8713    -8.5432     0.0348 N.ar    
  21 C21           -6.8207    -7.3509     0.6009 C.ar    
  22 C22           -5.6802    -6.5767     0.5186 C.ar    
  23 Cl23          -8.2026    -6.7527     1.4649 Cl      
  24 H24            0.7725    -0.6063    -1.8873 H       
  25 H25           -0.3039     0.6607     2.0553 H       
  26 H26            3.3688     1.8019     0.4966 H       
  27 H27            2.9217     0.6106    -1.6101 H       
  28 H28            1.0508    -2.2166    -0.1740 H       
  29 H29            1.0275    -4.6742    -0.3094 H       
  30 H30           -3.2330    -2.2849    -0.0764 H       
  31 H31           -2.5589    -6.7562    -0.4277 H       
  32 H32           -3.8418    -8.7424    -1.3145 H       
  33 H33           -5.9301   -10.0209    -1.0811 H       
  34 H34           -5.6448    -5.6026     0.9836 H       
@<TRIPOS>BOND
   1    1    2 ar
   2    1    6 ar
   3    1   24 1
   4    2    3 ar
   5    2   15 1
   6    3    4 ar
   7    3   25 1
   8    4    5 ar
   9    5    6 ar
  10    5   26 1
  11    6   27 1
  12    7    8 ar
  13    7   12 ar
  14    7   15 1
  15    8    9 ar
  16    8   28 1
  17    9   10 ar
  18    9   29 1
  19   10   11 ar
  20   11   12 ar
  21   11   13 1
  22   12   30 1
  23   13   14 am
  24   13   17 2
  25   14   16 1
  26   14   31 1
  27   16   18 ar
  28   16   22 ar
  29   18   19 ar
  30   18   32 1
  31   19   20 ar
  32   19   33 1
  33   20   21 ar
  34   21   22 ar
  35   21   23 1
  36   22   34 1

#	End of record

