#	Name: ASD04840026
#	Creating user name:	WinNT
#	Creation time:	15. 06. 2019 20:52

#	Modifying user name:	WinNT
#	Modification time:	15. 06. 2019 20:52

#	Program:	/corina/corina34_cracker 3.40 0067  02.08.2006

@<TRIPOS>MOLECULE
ASD04840026
  37   40    0    0    0
SMALL
NO_CHARGES


@<TRIPOS>ATOM
   1 C1            -0.0169     1.3952     0.0097 C.ar    
   2 C2             0.0021    -0.0041     0.0020 C.ar    
   3 C3            -1.1798    -0.7242     0.0090 C.ar    
   4 C4            -2.3988    -0.0609     0.0242 C.ar    
   5 C5            -2.4180     1.3482     0.0324 C.ar    
   6 C6            -1.2173     2.0699     0.0305 C.ar    
   7 O7            -3.5524    -0.7603     0.0306 O.3     
   8 C8            -4.7619    -0.1626     0.0449 C.2     
   9 C9            -4.8793     1.2470     0.0540 C.2     
  10 C10           -3.7097     2.0411     0.0483 C.2     
  11 C11           -5.9077    -0.9368     0.0502 C.2     
  12 C12           -7.1640    -0.3247     0.0647 C.2     
  13 C13           -7.2710     1.0854     0.0734 C.2     
  14 C14           -6.1499     1.8547     0.0682 C.2     
  15 C15           -3.7862     3.5104     0.0585 C.ar    
  16 C16           -3.4994     4.2224     1.2285 C.ar    
  17 C17           -3.5732     5.5978     1.2303 C.ar    
  18 C18           -3.9307     6.2810     0.0788 C.ar    
  19 C19           -4.2170     5.5916    -1.0837 C.ar    
  20 C20           -4.1419     4.2079    -1.1078 C.ar    
  21 O21           -4.4228     3.5298    -2.2486 O.3     
  22 O22            1.1523     2.0901     0.0023 O.3     
  23 O23            1.1900    -0.6607    -0.0129 O.3     
  24 O24           -8.1781    -1.0134     0.0694 O.2     
  25 O25           -8.4976     1.6732     0.0866 O.3     
  26 H26           -1.1534    -1.8038     0.0022 H       
  27 H27           -1.2330     3.1498     0.0372 H       
  28 H28           -5.8317    -2.0141     0.0429 H       
  29 H29           -6.2336     2.9314     0.0752 H       
  30 H30           -3.2211     3.6944     2.1286 H       
  31 H31           -3.3517     6.1466     2.1338 H       
  32 H32           -3.9861     7.3595     0.0903 H       
  33 H33           -4.4951     6.1321    -1.9764 H       
  34 H34           -3.6553     3.3835    -2.8183 H       
  35 H35            1.4820     2.2957    -0.8832 H       
  36 H36            1.5426    -0.8558     0.8662 H       
  37 H37           -9.2340     1.0465     0.0890 H       
@<TRIPOS>BOND
   1    1    2 ar
   2    1   22 1
   3    1    6 ar
   4    2    3 ar
   5    2   23 1
   6    3    4 ar
   7    3   26 1
   8    4    5 ar
   9    4    7 1
  10    5    6 ar
  11    5   10 1
  12    6   27 1
  13    7    8 1
  14    8    9 1
  15    8   11 2
  16    9   10 2
  17    9   14 1
  18   10   15 1
  19   11   12 1
  20   11   28 1
  21   12   13 1
  22   12   24 2
  23   13   14 2
  24   13   25 1
  25   14   29 1
  26   15   16 ar
  27   15   20 ar
  28   16   17 ar
  29   16   30 1
  30   17   18 ar
  31   17   31 1
  32   18   19 ar
  33   18   32 1
  34   19   20 ar
  35   19   33 1
  36   20   21 1
  37   21   34 1
  38   22   35 1
  39   23   36 1
  40   25   37 1

#	End of record

