#	Name: ASD03731456
#	Creating user name:	WinNT
#	Creation time:	15. 06. 2019 20:45

#	Modifying user name:	WinNT
#	Modification time:	15. 06. 2019 20:45

#	Program:	/corina/corina34_cracker 3.40 0067  02.08.2006

@<TRIPOS>MOLECULE
ASD03731456
  57   61    0    0    0
SMALL
NO_CHARGES


@<TRIPOS>ATOM
   1 C1            -0.0184     1.5028     0.0103 C.2     
   2 C2             0.0021    -0.0041     0.0020 C.3     
   3 C3             1.4513    -0.4944    -0.0145 C.3     
   4 C4             1.4726    -2.0183    -0.1486 C.3     
   5 O5             1.0236     2.1234     0.0037 O.2     
   6 N6            -1.1946     2.1607     0.0195 N.am    
   7 C7            -1.2145     3.6256     0.0275 C.3     
   8 C8            -2.6637     4.1159     0.0371 C.3     
   9 C9            -2.6845     5.6457     0.0455 C.3     
  10 O10           -8.8979     2.7393     2.1988 O.3     
  11 C11          -10.3150     2.7928     2.4481 C.3     
  12 O12          -10.5201     4.1171     2.9744 O.3     
  13 C13           -9.5165     4.8794     2.4484 C.ar    
  14 C14           -8.5189     4.0315     1.9726 C.ar    
  15 C15           -9.3717     6.2503     2.3343 C.ar    
  16 C16           -8.2322     6.7925     1.7475 C.ar    
  17 C17           -7.2388     5.9357     1.2835 C.ar    
  18 C18           -7.3830     4.5682     1.3902 C.ar    
  19 O19           -7.9033     8.0972     1.5243 O.3     
  20 C20           -6.1403     6.8084     0.7378 C.3     
  21 C21           -6.4846     8.1968     1.2939 C.3     
  22 N22           -4.0722     6.1152     0.0546 N.am    
  23 C23           -4.7795     6.3508     1.1777 C.2     
  24 C24           -6.0970     6.8011    -0.7615 C.ar    
  25 C25           -7.0126     7.1140    -1.7413 C.ar    
  26 C26           -6.6642     7.0046    -3.0758 C.ar    
  27 C27           -5.3947     6.5797    -3.4231 C.ar    
  28 C28           -4.4744     6.2642    -2.4454 C.ar    
  29 C29           -4.8162     6.3718    -1.0995 C.ar    
  30 O30           -4.3925     6.2192     2.3196 O.2     
  31 C31           -0.7002    -0.5305     1.2552 C.3     
  32 H32           -0.5153    -0.3696    -0.8850 H       
  33 H33            1.9763    -0.0479    -0.8589 H       
  34 H34            1.9435    -0.2044     0.9138 H       
  35 H35            0.9476    -2.4648     0.6959 H       
  36 H36            0.9804    -2.3083    -1.0769 H       
  37 H37            2.5050    -2.3676    -0.1603 H       
  38 H38           -2.0280     1.6644     0.0207 H       
  39 H39           -0.7014     3.9910     0.9171 H       
  40 H40           -0.7098     4.0007    -0.8628 H       
  41 H41           -3.1768     3.7505    -0.8525 H       
  42 H42           -3.1683     3.7408     0.9274 H       
  43 H43           -2.1714     6.0112     0.9350 H       
  44 H44           -2.1798     6.0209    -0.8449 H       
  45 H45          -10.8722     2.6586     1.5209 H       
  46 H46          -10.6034     2.0402     3.1818 H       
  47 H47          -10.1480     6.9043     2.7032 H       
  48 H48           -6.6078     3.9142     1.0188 H       
  49 H49           -6.2650     8.9729     0.5607 H       
  50 H50           -5.9530     8.3828     2.2271 H       
  51 H51           -8.0034     7.4455    -1.4678 H       
  52 H52           -7.3818     7.2508    -3.8445 H       
  53 H53           -5.1228     6.4942    -4.4648 H       
  54 H54           -3.4852     5.9325    -2.7244 H       
  55 H55           -0.1829    -0.1650     2.1423 H       
  56 H56           -1.7327    -0.1812     1.2669 H       
  57 H57           -0.6854    -1.6204     1.2492 H       
@<TRIPOS>BOND
   1    1    2 1
   2    1    5 2
   3    1    6 am
   4    2    3 1
   5    2   31 1
   6    2   32 1
   7    3    4 1
   8    3   33 1
   9    3   34 1
  10    4   35 1
  11    4   36 1
  12    4   37 1
  13    6    7 1
  14    6   38 1
  15    7    8 1
  16    7   39 1
  17    7   40 1
  18    8    9 1
  19    8   41 1
  20    8   42 1
  21    9   22 1
  22    9   43 1
  23    9   44 1
  24   10   11 1
  25   10   14 1
  26   11   12 1
  27   11   45 1
  28   11   46 1
  29   12   13 1
  30   13   14 ar
  31   13   15 ar
  32   14   18 ar
  33   15   16 ar
  34   15   47 1
  35   16   17 ar
  36   16   19 1
  37   17   18 ar
  38   17   20 1
  39   18   48 1
  40   19   21 1
  41   20   21 1
  42   20   23 1
  43   20   24 1
  44   21   49 1
  45   21   50 1
  46   22   23 am
  47   22   29 1
  48   23   30 2
  49   24   25 ar
  50   24   29 ar
  51   25   26 ar
  52   25   51 1
  53   26   27 ar
  54   26   52 1
  55   27   28 ar
  56   27   53 1
  57   28   29 ar
  58   28   54 1
  59   31   55 1
  60   31   56 1
  61   31   57 1

#	End of record

