#	Name: ASD03092314
#	Creating user name:	WinNT
#	Creation time:	15. 06. 2019 20:32

#	Modifying user name:	WinNT
#	Modification time:	15. 06. 2019 20:32

#	Program:	/corina/corina34_cracker 3.40 0067  02.08.2006

@<TRIPOS>MOLECULE
ASD03092314
  61   64    0    0    0
SMALL
NO_CHARGES


@<TRIPOS>ATOM
   1 O1             0.6161     2.1504    -0.3262 O.3     
   2 C2             0.4606     0.8191    -0.3468 C.2     
   3 N3             1.6277     0.2507    -0.2931 N.2     
   4 C4             2.5784     1.2225    -0.2357 C.2     
   5 C5             1.9298     2.4187    -0.2572 C.2     
   6 C6             4.0366     1.0180    -0.1634 C.2     
   7 O7             4.7834     1.9767    -0.1160 O.2     
   8 N8             4.5420    -0.2313    -0.1498 N.am    
   9 C9             2.5652     3.7844    -0.2124 C.3     
  10 F10            2.8281     4.2194    -1.5158 F       
  11 F11            1.6944     4.6836     0.4126 F       
  12 F12            3.7628     3.7182     0.5076 F       
  13 C13           -0.8596     0.0959    -0.4198 C.3     
  14 C14            5.9911    -0.4345    -0.0779 C.3     
  15 S15            6.8068    -4.2902     0.6047 S.3     
  16 C16            6.6506    -3.8858    -1.0489 C.2     
  17 N17            6.3870    -2.6205    -1.1805 N.2     
  18 C18            6.2919    -1.9111    -0.0769 C.2     
  19 C19            6.4864    -2.6177     1.0562 C.2     
  20 C20            7.3676    -1.8559     4.6266 C.ar    
  21 C21            7.4522    -2.3766     3.3535 C.ar    
  22 C22            6.4386    -2.0836     2.4313 C.ar    
  23 C23            5.3786    -1.2689     2.8512 C.ar    
  24 C24            5.3747    -0.7918     4.1440 C.ar    
  25 N25            6.3506    -1.0922     4.9808 N.ar    
  26 C26            4.2409     0.0854     4.6089 C.3     
  27 C27            8.4474    -2.1681     5.6304 C.3     
  28 N28            6.7859    -4.7781    -2.0969 N.3     
  29 C29            7.0832    -6.1303    -1.6025 C.3     
  30 C30            7.2837    -7.0708    -2.7938 C.3     
  31 O31            6.1167    -7.0408    -3.6200 O.3     
  32 C32            5.7982    -5.7391    -4.1194 C.3     
  33 C33            5.5827    -4.7851    -2.9415 C.3     
  34 C34            4.5205    -5.8122    -4.9580 C.3     
  35 C35            7.5141    -8.4958    -2.2866 C.3     
  36 H36            3.9464    -0.9959    -0.1876 H       
  37 H37           -1.6708     0.8231    -0.4538 H       
  38 H38           -0.8867    -0.5210    -1.3180 H       
  39 H39           -0.9760    -0.5374     0.4596 H       
  40 H40            6.4667     0.0326    -0.9403 H       
  41 H41            6.3761     0.0154     0.8373 H       
  42 H42            8.2872    -3.0004     3.0707 H       
  43 H43            4.5772    -1.0185     2.1719 H       
  44 H44            3.4487    -0.5358     5.0267 H       
  45 H45            4.6036     0.7738     5.3722 H       
  46 H46            3.8504     0.6527     3.7640 H       
  47 H47            9.2311    -1.4131     5.5676 H       
  48 H48            8.0218    -2.1674     6.6339 H       
  49 H49            8.8703    -3.1495     5.4157 H       
  50 H50            7.9918    -6.1063    -1.0008 H       
  51 H51            6.2521    -6.4862    -0.9936 H       
  52 H52            8.1480    -6.7456    -3.3728 H       
  53 H53            6.6193    -5.3752    -4.7370 H       
  54 H54            4.7276    -5.1195    -2.3541 H       
  55 H55            5.3959    -3.7792    -3.3173 H       
  56 H56            3.6998    -6.1743    -4.3389 H       
  57 H57            4.2783    -4.8198    -5.3383 H       
  58 H58            4.6733    -6.4945    -5.7942 H       
  59 H59            6.6483    -8.8205    -1.7094 H       
  60 H60            7.6567    -9.1649    -3.1352 H       
  61 H61            8.4014    -8.5172    -1.6539 H       
@<TRIPOS>BOND
   1    1    2 1
   2    1    5 1
   3    2    3 2
   4    2   13 1
   5    3    4 1
   6    4    5 2
   7    4    6 1
   8    5    9 1
   9    6    7 2
  10    6    8 am
  11    8   14 1
  12    8   36 1
  13    9   10 1
  14    9   11 1
  15    9   12 1
  16   13   37 1
  17   13   38 1
  18   13   39 1
  19   14   18 1
  20   14   40 1
  21   14   41 1
  22   15   16 1
  23   15   19 1
  24   16   17 2
  25   16   28 1
  26   17   18 1
  27   18   19 2
  28   19   22 1
  29   20   21 ar
  30   20   25 ar
  31   20   27 1
  32   21   22 ar
  33   21   42 1
  34   22   23 ar
  35   23   24 ar
  36   23   43 1
  37   24   25 ar
  38   24   26 1
  39   26   44 1
  40   26   45 1
  41   26   46 1
  42   27   47 1
  43   27   48 1
  44   27   49 1
  45   28   29 1
  46   28   33 1
  47   29   30 1
  48   29   50 1
  49   29   51 1
  50   30   31 1
  51   30   35 1
  52   30   52 1
  53   31   32 1
  54   32   33 1
  55   32   34 1
  56   32   53 1
  57   33   54 1
  58   33   55 1
  59   34   56 1
  60   34   57 1
  61   34   58 1
  62   35   59 1
  63   35   60 1
  64   35   61 1

#	End of record

