#	Name: ASD02408413
#	Creating user name:	WinNT
#	Creation time:	15. 06. 2019 20:21

#	Modifying user name:	WinNT
#	Modification time:	15. 06. 2019 20:21

#	Program:	/corina/corina34_cracker 3.40 0067  02.08.2006

@<TRIPOS>MOLECULE
ASD02408413
  43   46    0    0    0
SMALL
NO_CHARGES


@<TRIPOS>ATOM
   1 N1             0.5032     1.7750    -0.5221 N.am    
   2 C2             0.3764     0.4335    -0.3618 C.2     
   3 N3             1.3953    -0.3730    -0.2995 N.2     
   4 C4             2.6578     0.0719    -0.3912 C.2     
   5 C5             2.8890     1.4465    -0.5591 C.2     
   6 C6             1.7304     2.3368    -0.6263 C.2     
   7 N7             3.8801    -0.5262    -0.3596 N.pl3   
   8 N8             4.8580     0.4658    -0.5063 N.2     
   9 C9             4.2828     1.6311    -0.6244 C.2     
  10 C10           -1.0090    -0.1489    -0.2502 C.3     
  11 C11           -0.9120    -1.6659    -0.0765 C.3     
  12 C12            4.1189    -1.8977    -0.2064 C.ar    
  13 C13            3.4175    -2.8163    -0.9759 C.ar    
  14 C14            3.6553    -4.1683    -0.8224 C.ar    
  15 C15            4.5907    -4.6072     0.0964 C.ar    
  16 C16            5.2907    -3.6948     0.8647 C.ar    
  17 C17            5.0620    -2.3416     0.7116 C.ar    
  18 O18            1.8648     3.5390    -0.7714 O.2     
  19 C19           -2.3111    -2.2596     0.1638 C.3     
  20 C20           -2.5756    -3.2463    -0.9922 C.3     
  21 C21           -1.1615    -3.6421    -1.4848 C.3     
  22 C22           -0.3750    -2.3127    -1.3700 C.3     
  23 C23            5.8255    -1.3481     1.5488 C.3     
  24 H24           -0.2888     2.3332    -0.5663 H       
  25 H25            4.7899     2.5762    -0.7508 H       
  26 H26           -1.5167     0.2837     0.6118 H       
  27 H27           -1.5725     0.0778    -1.1553 H       
  28 H28           -0.2564    -1.9044     0.7610 H       
  29 H29            2.6865    -2.4740    -1.6935 H       
  30 H30            3.1098    -4.8833    -1.4204 H       
  31 H31            4.7748    -5.6648     0.2145 H       
  32 H32            6.0201    -4.0408     1.5821 H       
  33 H33           -2.3343    -2.7868     1.1175 H       
  34 H34           -3.0593    -1.4669     0.1566 H       
  35 H35           -3.1127    -4.1230    -0.6301 H       
  36 H36           -3.1347    -2.7579    -1.7903 H       
  37 H37           -0.7269    -4.4050    -0.8388 H       
  38 H38           -1.1943    -3.9834    -2.5194 H       
  39 H39           -0.5788    -1.6735    -2.2291 H       
  40 H40            0.6938    -2.5080    -1.2836 H       
  41 H41            6.6922    -0.9932     0.9913 H       
  42 H42            5.1791    -0.5045     1.7912 H       
  43 H43            6.1573    -1.8279     2.4696 H       
@<TRIPOS>BOND
   1    1    2 1
   2    1    6 am
   3    1   24 1
   4    2    3 2
   5    2   10 1
   6    3    4 1
   7    4    5 2
   8    4    7 1
   9    5    6 1
  10    5    9 1
  11    6   18 2
  12    7    8 1
  13    7   12 1
  14    8    9 2
  15    9   25 1
  16   10   11 1
  17   10   26 1
  18   10   27 1
  19   11   19 1
  20   11   22 1
  21   11   28 1
  22   12   13 ar
  23   12   17 ar
  24   13   14 ar
  25   13   29 1
  26   14   15 ar
  27   14   30 1
  28   15   16 ar
  29   15   31 1
  30   16   17 ar
  31   16   32 1
  32   17   23 1
  33   19   20 1
  34   19   33 1
  35   19   34 1
  36   20   21 1
  37   20   35 1
  38   20   36 1
  39   21   22 1
  40   21   37 1
  41   21   38 1
  42   22   39 1
  43   22   40 1
  44   23   41 1
  45   23   42 1
  46   23   43 1

#	End of record

