#	Name: ASD03240991
#	Creating user name:	WinNT
#	Creation time:	15. 06. 2019 20:35

#	Modifying user name:	WinNT
#	Modification time:	15. 06. 2019 20:35

#	Program:	/corina/corina34_cracker 3.40 0067  02.08.2006

@<TRIPOS>MOLECULE
ASD03240991
  59   64    0    0    0
SMALL
NO_CHARGES


@<TRIPOS>ATOM
   1 C1            -0.0167     1.3811     0.0096 C.ar    
   2 C2             0.0021    -0.0041     0.0020 C.ar    
   3 C3             1.2199    -0.6801    -0.0132 C.ar    
   4 C4             2.4130     0.0415    -0.0207 C.ar    
   5 C5             2.3847     1.4213    -0.0130 C.ar    
   6 C6             1.1756     2.0917     0.0021 C.ar    
   7 O7            -1.2029     2.0444     0.0188 O.3     
   8 N8             1.4114    -6.2869    -0.1539 N.pl3   
   9 C9             0.6796    -7.0125     0.7468 C.2     
  10 N10           -0.0929    -6.4235     1.6768 N.2     
  11 C11           -0.1903    -5.1227     1.7752 C.2     
  12 C12            0.5627    -4.2820     0.8469 C.ar    
  13 C13            0.4985    -2.8855     0.9016 C.ar    
  14 C14            1.2473    -2.1625    -0.0210 C.ar    
  15 C15            2.0318    -2.8564    -0.9629 C.ar    
  16 N16            2.0671    -4.1802    -0.9844 N.ar    
  17 C17            1.3711    -4.9061    -0.1268 C.ar    
  18 C18            0.9220    -8.3516     0.4726 C.2     
  19 C19            1.8042    -8.4109    -0.5989 C.2     
  20 N20            2.0941    -7.1894    -0.9782 N.2     
  21 C21            2.3367    -9.6731    -1.2268 C.3     
  22 C22            2.8311    -2.0917    -1.9475 C.ar    
  23 C23            4.0746    -2.5690    -2.3619 C.ar    
  24 C24            4.8144    -1.8523    -3.2799 C.ar    
  25 C25            4.3253    -0.6625    -3.7892 C.ar    
  26 C26            3.0929    -0.1837    -3.3818 C.ar    
  27 C27            2.3411    -0.8942    -2.4687 C.ar    
  28 C28            5.1385     0.1153    -4.7915 C.3     
  29 C29            4.2851     0.9293    -5.7784 C.3     
  30 C30            5.3290     2.0493    -5.6354 C.3     
  31 C31            5.6574     1.4594    -4.2537 C.3     
  32 C32            6.4815     1.9445    -6.6362 C.3     
  33 O33            4.7595     3.3587    -5.5780 O.3     
  34 N34            6.1749    -0.6980    -5.4415 N.3     
  35 H35           -0.9249    -0.5582     0.0082 H       
  36 H36            3.3591    -0.4793    -0.0322 H       
  37 H37            3.3095     1.9789    -0.0185 H       
  38 H38            1.1588     3.1715     0.0080 H       
  39 H39           -1.5420     2.2315     0.9049 H       
  40 H40           -0.8187    -4.6764     2.5317 H       
  41 H41           -0.1141    -2.3846     1.6365 H       
  42 H42            0.5007    -9.1958     0.9982 H       
  43 H43            1.6714    -9.9874    -2.0311 H       
  44 H44            3.3318    -9.4863    -1.6305 H       
  45 H45            2.3919   -10.4586    -0.4731 H       
  46 H46            4.4576    -3.4974    -1.9648 H       
  47 H47            5.7775    -2.2205    -3.6013 H       
  48 H48            2.7166     0.7458    -3.7826 H       
  49 H49            1.3770    -0.5219    -2.1550 H       
  50 H50            4.2425     0.4972    -6.7782 H       
  51 H51            3.3025     1.1959    -5.3892 H       
  52 H52            5.0499     1.8709    -3.4476 H       
  53 H53            6.7226     1.4553    -4.0226 H       
  54 H54            6.0872     1.9951    -7.6511 H       
  55 H55            7.1782     2.7673    -6.4756 H       
  56 H56            7.0004     0.9964    -6.4948 H       
  57 H57            5.4112     4.0675    -5.4880 H       
  58 H58            6.7100    -1.2143    -4.7595 H       
  59 H59            5.7709    -1.3171    -6.1282 H       
@<TRIPOS>BOND
   1    1    2 ar
   2    1    6 ar
   3    1    7 1
   4    2    3 ar
   5    2   35 1
   6    3    4 ar
   7    3   14 1
   8    4    5 ar
   9    4   36 1
  10    5    6 ar
  11    5   37 1
  12    6   38 1
  13    7   39 1
  14    8    9 1
  15    8   17 1
  16    8   20 1
  17    9   10 1
  18    9   18 2
  19   10   11 2
  20   11   12 1
  21   11   40 1
  22   12   13 ar
  23   12   17 ar
  24   13   14 ar
  25   13   41 1
  26   14   15 ar
  27   15   16 ar
  28   15   22 1
  29   16   17 ar
  30   18   19 1
  31   18   42 1
  32   19   20 2
  33   19   21 1
  34   21   43 1
  35   21   44 1
  36   21   45 1
  37   22   23 ar
  38   22   27 ar
  39   23   24 ar
  40   23   46 1
  41   24   25 ar
  42   24   47 1
  43   25   26 ar
  44   25   28 1
  45   26   27 ar
  46   26   48 1
  47   27   49 1
  48   28   29 1
  49   28   31 1
  50   28   34 1
  51   29   30 1
  52   29   50 1
  53   29   51 1
  54   30   31 1
  55   30   32 1
  56   30   33 1
  57   31   52 1
  58   31   53 1
  59   32   54 1
  60   32   55 1
  61   32   56 1
  62   33   57 1
  63   34   58 1
  64   34   59 1

#	End of record

