#	Name: ASD09200047
#	Creating user name:	WinNT
#	Creation time:	15. 06. 2019 21:21

#	Modifying user name:	WinNT
#	Modification time:	15. 06. 2019 21:21

#	Program:	/corina/corina34_cracker 3.40 0067  02.08.2006

@<TRIPOS>MOLECULE
ASD09200047
  50   52    0    0    0
SMALL
NO_CHARGES


@<TRIPOS>ATOM
   1 C1            -0.3416     1.0669    -0.6945 C.ar    
   2 C2            -0.1475    -0.0386     0.1190 C.ar    
   3 C3            -1.1671    -0.4839     0.9448 C.ar    
   4 C4            -2.3808     0.1716     0.9610 C.ar    
   5 C5            -2.5812     1.2842     0.1446 C.ar    
   6 C6            -1.5510     1.7325    -0.6807 C.ar    
   7 C7            -3.8836     1.9915     0.1587 C.ar    
   8 C8            -5.0876     1.2770     0.0002 C.ar    
   9 N9            -6.2326     1.9512     0.0196 N.ar    
  10 C10           -6.2114     3.2681     0.1864 C.ar    
  11 N11           -5.0654     3.9205     0.3333 N.ar    
  12 N12           -3.9342     3.3068     0.3263 N.ar    
  13 N13           -7.4031     3.9715     0.2068 N.3     
  14 C14           -7.1635     5.4072     0.4010 C.3     
  15 C15           -8.5018     6.1316     0.5638 C.3     
  16 C16           -9.3562     5.9021    -0.6859 C.3     
  17 C17           -9.5503     4.3974    -0.8927 C.3     
  18 C18           -8.1816     3.7233    -1.0133 C.3     
  19 N19          -10.6647     6.5464    -0.5111 N.3     
  20 C20          -11.2678     6.8743    -1.8098 C.3     
  21 C21          -12.7891     6.9441    -1.6626 C.3     
  22 C22          -10.7393     8.2272    -2.2905 C.3     
  23 C23           -1.7611     2.9346    -1.5649 C.3     
  24 Br24           1.0547     1.6687    -1.8188 Br      
  25 F25            1.0392    -0.6841     0.1063 F       
  26 N26           -5.0780    -0.0956    -0.1723 N.pl3   
  27 H27           -1.0115    -1.3459     1.5766 H       
  28 H28           -3.1749    -0.1767     1.6048 H       
  29 H29           -6.5584     5.5567     1.2952 H       
  30 H30           -6.6367     5.8079    -0.4651 H       
  31 H31           -9.0230     5.7409     1.4378 H       
  32 H32           -8.3243     7.1993     0.6923 H       
  33 H33           -8.8529     6.3272    -1.5543 H       
  34 H34          -10.0880     3.9795    -0.0416 H       
  35 H35          -10.1219     4.2261    -1.8048 H       
  36 H36           -7.6501     4.1318    -1.8727 H       
  37 H37           -8.3160     2.6498    -1.1463 H       
  38 H38          -11.2821     5.9677     0.0386 H       
  39 H39          -11.0080     6.1039    -2.5359 H       
  40 H40          -13.0489     7.7144    -0.9365 H       
  41 H41          -13.2366     7.1874    -2.6262 H       
  42 H42          -13.1656     5.9802    -1.3201 H       
  43 H43          -11.1868     8.4705    -3.2542 H       
  44 H44          -10.9991     8.9976    -1.5644 H       
  45 H45           -9.6555     8.1775    -2.3954 H       
  46 H46           -1.5511     3.8426    -0.9997 H       
  47 H47           -1.0903     2.8768    -2.4221 H       
  48 H48           -2.7940     2.9538    -1.9126 H       
  49 H49           -4.2362    -0.5645    -0.2837 H       
  50 H50           -5.9130    -0.5891    -0.1819 H       
@<TRIPOS>BOND
   1    1    2 ar
   2    1   24 1
   3    1    6 ar
   4    2    3 ar
   5    2   25 1
   6    3    4 ar
   7    3   27 1
   8    4    5 ar
   9    4   28 1
  10    5    6 ar
  11    5    7 1
  12    6   23 1
  13    7    8 ar
  14    7   12 ar
  15    8    9 ar
  16    8   26 1
  17    9   10 ar
  18   10   11 ar
  19   10   13 1
  20   11   12 ar
  21   13   14 1
  22   13   18 1
  23   14   15 1
  24   14   29 1
  25   14   30 1
  26   15   16 1
  27   15   31 1
  28   15   32 1
  29   16   17 1
  30   16   19 1
  31   16   33 1
  32   17   18 1
  33   17   34 1
  34   17   35 1
  35   18   36 1
  36   18   37 1
  37   19   20 1
  38   19   38 1
  39   20   21 1
  40   20   22 1
  41   20   39 1
  42   21   40 1
  43   21   41 1
  44   21   42 1
  45   22   43 1
  46   22   44 1
  47   22   45 1
  48   23   46 1
  49   23   47 1
  50   23   48 1
  51   26   49 1
  52   26   50 1

#	End of record

