#	Name: ASD02440031
#	Creating user name:	WinNT
#	Creation time:	15. 06. 2019 20:21

#	Modifying user name:	WinNT
#	Modification time:	15. 06. 2019 20:21

#	Program:	/corina/corina34_cracker 3.40 0067  02.08.2006

@<TRIPOS>MOLECULE
ASD02440031
  42   45    0    0    0
SMALL
NO_CHARGES


@<TRIPOS>ATOM
   1 C1            -0.0167     1.3782     0.0096 C.ar    
   2 C2             0.0021    -0.0041     0.0020 C.ar    
   3 C3             1.2069    -0.6820    -0.0131 C.ar    
   4 C4             2.3981     0.0193    -0.0203 C.ar    
   5 C5             2.3864     1.4049    -0.0127 C.ar    
   6 C6             1.1738     2.0873     0.0021 C.ar    
   7 O7             3.5575     2.0963    -0.0193 O.3     
   8 O8             1.1571     3.4471     0.0091 O.3     
   9 C9            -1.2936    -0.7736     0.0108 C.3     
  10 O10           -1.1729    -1.9093     0.8676 O.3     
  11 C11           -2.1579    -2.8437     0.8282 C.ar    
  12 C12           -3.0515    -2.9131    -0.2250 C.ar    
  13 C13           -2.9819    -1.9475    -1.3814 C.3     
  14 C14           -1.6099    -1.2695    -1.4062 C.3     
  15 O15           -1.6355    -0.1628    -2.3098 O.3     
  16 C16           -2.2493    -3.7462     1.8897 C.ar    
  17 C17           -3.2275    -4.7173     1.9011 C.ar    
  18 C18           -4.1382    -4.7965     0.8324 C.ar    
  19 C19           -4.0454    -3.8871    -0.2344 C.ar    
  20 O20           -3.3108    -5.5911     2.9361 O.3     
  21 C21           -5.1529    -5.7881     0.8209 C.2     
  22 C22           -6.0078    -5.8224    -0.2354 C.2     
  23 C23           -5.8666    -4.8862    -1.2769 C.2     
  24 O24           -4.9107    -3.9487    -1.2679 O.3     
  25 O25           -6.6398    -4.9300    -2.2171 O.2     
  26 C26           -7.1011    -6.8580    -0.2914 C.3     
  27 H27           -5.2436    -6.4975     1.6303 H       
  28 H28           -0.9592     1.9054     0.0170 H       
  29 H29            1.2174    -1.7620    -0.0190 H       
  30 H30            3.3379    -0.5127    -0.0314 H       
  31 H31            3.8884     2.3010    -0.9045 H       
  32 H32            1.1440     3.8448    -0.8723 H       
  33 H33           -2.1000    -0.1310     0.3641 H       
  34 H34           -3.1361    -2.4883    -2.3152 H       
  35 H35           -3.7582    -1.1907    -1.2691 H       
  36 H36           -0.8516    -1.9858    -1.7227 H       
  37 H37           -1.8485    -0.4043    -3.2216 H       
  38 H38           -1.5477    -3.6830     2.7083 H       
  39 H39           -3.8789    -5.2915     3.6590 H       
  40 H40           -7.9984    -6.4654     0.1870 H       
  41 H41           -7.3200    -7.0994    -1.3316 H       
  42 H42           -6.7758    -7.7584     0.2298 H       
@<TRIPOS>BOND
   1    1    2 ar
   2    1    6 ar
   3    1   28 1
   4    2    3 ar
   5    2    9 1
   6    3    4 ar
   7    3   29 1
   8    4    5 ar
   9    4   30 1
  10    5    6 ar
  11    5    7 1
  12    6    8 1
  13    7   31 1
  14    8   32 1
  15    9   10 1
  16    9   14 1
  17    9   33 1
  18   10   11 1
  19   11   12 ar
  20   11   16 ar
  21   12   13 1
  22   12   19 ar
  23   13   14 1
  24   13   34 1
  25   13   35 1
  26   14   15 1
  27   14   36 1
  28   15   37 1
  29   16   17 ar
  30   16   38 1
  31   17   18 ar
  32   17   20 1
  33   18   19 ar
  34   18   21 1
  35   19   24 1
  36   20   39 1
  37   21   22 2
  38   21   27 1
  39   22   23 1
  40   22   26 1
  41   23   24 1
  42   23   25 2
  43   26   40 1
  44   26   41 1
  45   26   42 1

#	End of record

