#	Name: ASD03240924
#	Creating user name:	WinNT
#	Creation time:	15. 06. 2019 20:35

#	Modifying user name:	WinNT
#	Modification time:	15. 06. 2019 20:35

#	Program:	/corina/corina34_cracker 3.40 0067  02.08.2006

@<TRIPOS>MOLECULE
ASD03240924
  75   82    0    0    0
SMALL
NO_CHARGES


@<TRIPOS>ATOM
   1 N1            -0.0165     1.3644     0.0095 N.pl3   
   2 C2             0.0021    -0.0041     0.0020 C.2     
   3 N3             1.1520    -0.7012    -0.0131 N.2     
   4 C4             2.3201    -0.1125    -0.0215 C.2     
   5 C5             2.3794     1.3476    -0.0142 C.ar    
   6 C6             3.5983     2.0343    -0.0225 C.ar    
   7 C7             3.5625     3.4247    -0.0146 C.ar    
   8 C8             2.3153     4.0793     0.0012 C.ar    
   9 N9             1.1813     3.3950     0.0086 N.ar    
  10 C10            1.1694     2.0733     0.0020 C.ar    
  11 C11           -1.3218    -0.4220     0.0129 C.2     
  12 C12           -2.1233     0.7125     0.0269 C.2     
  13 N13           -1.3548     1.7753     0.0302 N.2     
  14 C14            2.2712     5.5595     0.0101 C.ar    
  15 C15            1.2560     6.2339    -0.6682 C.ar    
  16 C16            1.2200     7.6132    -0.6558 C.ar    
  17 C17            2.1882     8.3271     0.0276 C.ar    
  18 C18            3.1977     7.6639     0.7022 C.ar    
  19 C19            3.2415     6.2848     0.7017 C.ar    
  20 C20            2.1433     9.8334     0.0367 C.3     
  21 N21            1.3452    10.2926     1.1813 N.3     
  22 C22            1.4722    11.7443     1.3628 C.3     
  23 C23            0.7487    12.1646     2.6442 C.3     
  24 C24           -0.7276    11.7712     2.5436 C.3     
  25 C25           -0.8305    10.2620     2.3064 C.3     
  26 C26           -0.0613     9.8968     1.0348 C.3     
  27 N27           -2.5727    13.2074     5.2571 N.2     
  28 N28           -2.0994    13.2267     4.0622 N.2     
  29 C29           -1.4326    12.1286     3.8266 C.2     
  30 N30           -1.4914    11.3663     4.9524 N.pl3   
  31 C31           -2.2300    12.0865     5.8518 C.2     
  32 C32           -2.1445    10.4552     7.7401 C.ar    
  33 C33           -2.5769    11.6804     7.2315 C.ar    
  34 C34           -3.3435    12.5186     8.0482 C.ar    
  35 C35           -3.6402    12.0923     9.3312 C.ar    
  36 C36           -3.1739    10.8633     9.7609 C.ar    
  37 N37           -2.4530    10.0935     8.9682 N.ar    
  38 C38            4.8213     4.2081    -0.0223 C.ar    
  39 C39            5.8335     3.9147     0.8902 C.ar    
  40 C40            7.0032     4.6469     0.8781 C.ar    
  41 C41            7.1723     5.6702    -0.0372 C.ar    
  42 C42            6.1712     5.9661    -0.9448 C.ar    
  43 C43            4.9995     5.2369    -0.9458 C.ar    
  44 C44           -3.6302     0.7208     0.0412 C.3     
  45 H45            3.2279    -0.6974    -0.0333 H       
  46 H46            4.5376     1.5015    -0.0343 H       
  47 H47           -1.6666    -1.4455     0.0105 H       
  48 H48            0.4998     5.6777    -1.2023 H       
  49 H49            0.4347     8.1365    -1.1809 H       
  50 H50            3.9507     8.2268     1.2339 H       
  51 H51            4.0274     5.7681     1.2324 H       
  52 H52            3.1566    10.2266     0.1191 H       
  53 H53            1.6898    10.1890    -0.8885 H       
  54 H54            2.5266    12.0101     1.4371 H       
  55 H55            1.0277    12.2572     0.5099 H       
  56 H56            1.2017    11.6627     3.4992 H       
  57 H57            0.8299    13.2443     2.7704 H       
  58 H58           -1.1904    12.3030     1.7122 H       
  59 H59           -0.4024     9.7301     3.1561 H       
  60 H60           -1.8777     9.9823     2.1913 H       
  61 H61           -0.4986    10.4183     0.1834 H       
  62 H62           -0.1206     8.8208     0.8709 H       
  63 H63           -1.0920    10.4930     5.0893 H       
  64 H64           -1.5557     9.7958     7.1197 H       
  65 H65           -3.6945    13.4739     7.6869 H       
  66 H66           -4.2293    12.7131     9.9899 H       
  67 H67           -3.4038    10.5281    10.7615 H       
  68 H68            5.7023     3.1162     1.6055 H       
  69 H69            7.7879     4.4207     1.5849 H       
  70 H70            8.0894     6.2405    -0.0430 H       
  71 H71            6.3085     6.7666    -1.6566 H       
  72 H72            4.2204     5.4659    -1.6578 H       
  73 H73           -3.9838     0.7169     1.0722 H       
  74 H74           -3.9934     1.6156    -0.4642 H       
  75 H75           -4.0033    -0.1643    -0.4742 H       
@<TRIPOS>BOND
   1    1    2 1
   2    1   10 1
   3    1   13 1
   4    2    3 1
   5    2   11 2
   6    3    4 2
   7    4    5 1
   8    4   45 1
   9    5    6 ar
  10    5   10 ar
  11    6    7 ar
  12    6   46 1
  13    7    8 ar
  14    7   38 1
  15    8    9 ar
  16    8   14 1
  17    9   10 ar
  18   11   12 1
  19   11   47 1
  20   12   13 2
  21   12   44 1
  22   14   15 ar
  23   14   19 ar
  24   15   16 ar
  25   15   48 1
  26   16   17 ar
  27   16   49 1
  28   17   18 ar
  29   17   20 1
  30   18   19 ar
  31   18   50 1
  32   19   51 1
  33   20   21 1
  34   20   52 1
  35   20   53 1
  36   21   22 1
  37   21   26 1
  38   22   23 1
  39   22   54 1
  40   22   55 1
  41   23   24 1
  42   23   56 1
  43   23   57 1
  44   24   25 1
  45   24   29 1
  46   24   58 1
  47   25   26 1
  48   25   59 1
  49   25   60 1
  50   26   61 1
  51   26   62 1
  52   27   28 1
  53   27   31 2
  54   28   29 2
  55   29   30 1
  56   30   31 1
  57   30   63 1
  58   31   33 1
  59   32   33 ar
  60   32   37 ar
  61   32   64 1
  62   33   34 ar
  63   34   35 ar
  64   34   65 1
  65   35   36 ar
  66   35   66 1
  67   36   37 ar
  68   36   67 1
  69   38   39 ar
  70   38   43 ar
  71   39   40 ar
  72   39   68 1
  73   40   41 ar
  74   40   69 1
  75   41   42 ar
  76   41   70 1
  77   42   43 ar
  78   42   71 1
  79   43   72 1
  80   44   73 1
  81   44   74 1
  82   44   75 1

#	End of record

