#	Name: ASD05740251
#	Creating user name:	WinNT
#	Creation time:	15. 06. 2019 21:03

#	Modifying user name:	WinNT
#	Modification time:	15. 06. 2019 21:03

#	Program:	/corina/corina34_cracker 3.40 0067  02.08.2006

@<TRIPOS>MOLECULE
ASD05740251
  74   78    0    0    0
SMALL
NO_CHARGES


@<TRIPOS>ATOM
   1 C1            -0.0174     1.3909    -0.0579 C.ar    
   2 C2             0.0012    -0.0016    -0.0582 C.ar    
   3 N3             1.1109     2.0858    -0.0596 N.ar    
   4 C4             2.2886     1.4956    -0.0617 C.ar    
   5 C5             2.3872     0.1061    -0.0626 C.ar    
   6 C6             1.2146    -0.6594    -0.0603 C.ar    
   7 C7             3.7144    -0.5529    -0.0658 C.ar    
   8 C8             4.8843     0.2063     0.0369 C.ar    
   9 N9             3.8114    -1.8772    -0.1611 N.ar    
  10 C10            4.9963    -2.4677    -0.1643 C.ar    
  11 N11            6.1209    -1.7725    -0.0733 N.ar    
  12 C12            6.0999    -0.4526     0.0295 C.ar    
  13 N13            5.0624    -3.8474    -0.2648 N.pl3   
  14 N14           -1.2333     2.0594    -0.0617 N.pl3   
  15 C15            6.3052    -4.4821    -0.3885 C.ar    
  16 C16            6.5123    -5.7237     0.1982 C.ar    
  17 C17            7.3280    -3.8723    -1.1025 C.ar    
  18 C18            8.5529    -4.4980    -1.2249 C.ar    
  19 C19            8.7617    -5.7370    -0.6339 C.ar    
  20 C20            7.7370    -6.3492     0.0763 C.ar    
  21 N21           10.0030    -6.3715    -0.7583 N.3     
  22 C22           11.2492    -8.2977    -1.6128 C.3     
  23 N23           11.8983    -8.4464    -0.3027 N.3     
  24 C24           12.0369    -7.1442     0.3640 C.3     
  25 C25           10.6520    -6.5202     0.5517 C.3     
  26 C26           13.2011    -9.1124    -0.4333 C.3     
  27 C27            9.8643    -7.6737    -1.4250 C.3     
  28 C28           -2.4865     1.3006    -0.0659 C.3     
  29 C29           -3.6699     2.2704    -0.0694 C.3     
  30 N30           -4.9265     1.5095    -0.0736 N.3     
  31 C31            9.6629    -3.8364    -2.0003 C.3     
  32 C32           -6.0767     2.3917     0.1609 C.3     
  33 C33           -7.3733     1.5938     0.0057 C.3     
  34 C34           -7.3793     0.4384     1.0105 C.3     
  35 C35           -6.1457    -0.4378     0.7760 C.3     
  36 C36           -4.8846     0.4190     0.9089 C.3     
  37 H37           -0.9231    -0.5602    -0.0564 H       
  38 H38            3.1869     2.0951    -0.0630 H       
  39 H39            1.2586    -1.7386    -0.0605 H       
  40 H40            4.8394     1.2822     0.1198 H       
  41 H41            7.0227     0.1038     0.1027 H       
  42 H42            4.2481    -4.3743    -0.2495 H       
  43 H43           -1.2536     3.0292    -0.0615 H       
  44 H44            5.7153    -6.1999     0.7500 H       
  45 H45            7.1655    -2.9087    -1.5625 H       
  46 H46            7.8994    -7.3127     0.5362 H       
  47 H47           11.8558    -7.6522    -2.2480 H       
  48 H48           11.1465    -9.2766    -2.0810 H       
  49 H49           12.5085    -7.2822     1.3370 H       
  50 H50           12.6525    -6.4856    -0.2487 H       
  51 H51           10.7547    -5.5413     1.0200 H       
  52 H52           10.0454    -7.1657     1.1869 H       
  53 H53           13.8490    -8.5196    -1.0791 H       
  54 H54           13.6597    -9.2097     0.5508 H       
  55 H55           13.0614   -10.1019    -0.8685 H       
  56 H56            9.2488    -8.3323    -0.8123 H       
  57 H57            9.3927    -7.5357    -2.3980 H       
  58 H58           -2.5283     0.6731    -0.9561 H       
  59 H59           -2.5340     0.6727     0.8238 H       
  60 H60           -3.6281     2.8979     0.8208 H       
  61 H61           -3.6224     2.8983    -0.9591 H       
  62 H62           10.2534    -3.2127    -1.3290 H       
  63 H63           10.3022    -4.6002    -2.4430 H       
  64 H64            9.2360    -3.2177    -2.7896 H       
  65 H65           -6.0207     2.8011     1.1696 H       
  66 H66           -6.0629     3.2067    -0.5628 H       
  67 H67           -8.2264     2.2453     0.1952 H       
  68 H68           -7.4366     1.1957    -1.0070 H       
  69 H69           -7.3553     0.8374     2.0245 H       
  70 H70           -8.2812    -0.1583     0.8741 H       
  71 H71           -6.1217    -1.2379     1.5159 H       
  72 H72           -6.1896    -0.8679    -0.2246 H       
  73 H73           -4.0050    -0.1989     0.7285 H       
  74 H74           -4.8342     0.8375     1.9141 H       
@<TRIPOS>BOND
   1    1    2 ar
   2    1    3 ar
   3    1   14 1
   4    2    6 ar
   5    2   37 1
   6    3    4 ar
   7    4    5 ar
   8    4   38 1
   9    5    6 ar
  10    5    7 1
  11    6   39 1
  12    7    8 ar
  13    7    9 ar
  14    8   12 ar
  15    8   40 1
  16    9   10 ar
  17   10   11 ar
  18   10   13 1
  19   11   12 ar
  20   12   41 1
  21   13   15 1
  22   13   42 1
  23   14   28 1
  24   14   43 1
  25   15   16 ar
  26   15   17 ar
  27   16   20 ar
  28   16   44 1
  29   17   18 ar
  30   17   45 1
  31   18   19 ar
  32   18   31 1
  33   19   20 ar
  34   19   21 1
  35   20   46 1
  36   21   27 1
  37   21   25 1
  38   22   23 1
  39   22   27 1
  40   22   47 1
  41   22   48 1
  42   23   24 1
  43   23   26 1
  44   24   25 1
  45   24   49 1
  46   24   50 1
  47   25   51 1
  48   25   52 1
  49   26   53 1
  50   26   54 1
  51   26   55 1
  52   27   56 1
  53   27   57 1
  54   28   29 1
  55   28   58 1
  56   28   59 1
  57   29   30 1
  58   29   60 1
  59   29   61 1
  60   30   32 1
  61   30   36 1
  62   31   62 1
  63   31   63 1
  64   31   64 1
  65   32   33 1
  66   32   65 1
  67   32   66 1
  68   33   34 1
  69   33   67 1
  70   33   68 1
  71   34   35 1
  72   34   69 1
  73   34   70 1
  74   35   36 1
  75   35   71 1
  76   35   72 1
  77   36   73 1
  78   36   74 1

#	End of record

