#	Name: ASD01940398
#	Creating user name:	WinNT
#	Creation time:	15. 06. 2019 20:12

#	Modifying user name:	WinNT
#	Modification time:	15. 06. 2019 20:12

#	Program:	/corina/corina34_cracker 3.40 0067  02.08.2006

@<TRIPOS>MOLECULE
ASD01940398
  39   42    0    0    0
SMALL
NO_CHARGES


@<TRIPOS>ATOM
   1 C1            -2.0681     1.2501    -2.7185 C.2     
   2 O2            -2.1848     0.0422    -2.8025 O.2     
   3 N3            -1.7607     1.9751    -3.8123 N.am    
   4 C4            -1.4786     1.6895    -5.2271 C.3     
   5 C5            -0.6323     2.9697    -5.2607 C.3     
   6 C6            -1.5660     3.4005    -4.1176 C.3     
   7 O7             0.7297     2.7820    -4.8713 O.3     
   8 N8            -2.8480     3.5719     2.3163 N.pl3   
   9 N9            -2.9604     2.3977     3.0703 N.2     
  10 C10           -2.8372     1.3621     2.2914 C.2     
  11 C11           -2.6346     1.8161     0.9667 C.ar    
  12 C12           -2.4437     1.1599    -0.2626 C.ar    
  13 C13           -2.2686     1.9204    -1.4240 C.ar    
  14 C14           -2.2836     3.3232    -1.3549 C.ar    
  15 C15           -2.4678     3.9578    -0.1660 C.ar    
  16 C16           -2.6455     3.2220     1.0089 C.ar    
  17 N17           -2.4293    -0.2230    -0.3228 N.pl3   
  18 C18           -3.5693    -0.9167    -0.7424 C.ar    
  19 C19           -3.5648    -2.3076    -0.7798 C.ar    
  20 C20           -4.6934    -2.9893    -1.1952 C.ar    
  21 C21           -5.8255    -2.2893    -1.5735 C.ar    
  22 C22           -5.8319    -0.9069    -1.5375 C.ar    
  23 C23           -4.7095    -0.2193    -1.1170 C.ar    
  24 I24           -7.5336    -3.3262    -2.2030 I       
  25 F25           -2.4590    -2.9907    -0.4113 F       
  26 H26           -0.8967     0.7804    -5.3788 H       
  27 H27           -2.3620     1.7364    -5.8639 H       
  28 H28           -0.7452     3.5563    -6.1724 H       
  29 H29           -2.4725     3.8984    -4.4619 H       
  30 H30           -1.0586     3.9491    -3.3240 H       
  31 H31            1.2601     3.5903    -4.8935 H       
  32 H32           -2.9074     4.4768     2.6604 H       
  33 H33           -2.8821     0.3293     2.6039 H       
  34 H34           -2.1471     3.9041    -2.2552 H       
  35 H35           -2.4768     5.0371    -0.1297 H       
  36 H36           -1.6288    -0.7110    -0.0741 H       
  37 H37           -4.6914    -4.0689    -1.2248 H       
  38 H38           -6.7172    -0.3639    -1.8338 H       
  39 H39           -4.7176     0.8602    -1.0848 H       
@<TRIPOS>BOND
   1    1    2 2
   2    1    3 am
   3    1   13 1
   4    3    4 1
   5    3    6 1
   6    4    5 1
   7    4   26 1
   8    4   27 1
   9    5    6 1
  10    5    7 1
  11    5   28 1
  12    6   29 1
  13    6   30 1
  14    7   31 1
  15    8    9 1
  16    8   16 1
  17    8   32 1
  18    9   10 2
  19   10   11 1
  20   10   33 1
  21   11   12 ar
  22   11   16 ar
  23   12   13 ar
  24   12   17 1
  25   13   14 ar
  26   14   15 ar
  27   14   34 1
  28   15   16 ar
  29   15   35 1
  30   17   18 1
  31   17   36 1
  32   18   19 ar
  33   18   23 ar
  34   19   20 ar
  35   19   25 1
  36   20   21 ar
  37   20   37 1
  38   21   22 ar
  39   21   24 1
  40   22   23 ar
  41   22   38 1
  42   23   39 1

#	End of record

