#	Name: ASD01870361
#	Creating user name:	WinNT
#	Creation time:	15. 06. 2019 19:39

#	Modifying user name:	WinNT
#	Modification time:	15. 06. 2019 19:39

#	Program:	/corina/corina34_cracker 3.40 0067  02.08.2006

@<TRIPOS>MOLECULE
ASD01870361
  60   64    0    0    0
SMALL
NO_CHARGES


@<TRIPOS>ATOM
   1 N1            -0.0179     1.4666     0.0101 N.am    
   2 C2             0.0021    -0.0041     0.0020 C.3     
   3 C3             1.1293     2.1740     0.0030 C.2     
   4 C4             1.0857     3.6803     0.0115 C.3     
   5 O5             2.1967     1.5983    -0.0103 O.2     
   6 C6             2.4763     4.3407     0.0017 C.3     
   7 N7             1.9076     5.2908    -0.9739 N.am    
   8 C8             0.8907     4.3026    -1.3830 C.3     
   9 S9             2.2664     6.8425    -1.4275 S.o2    
  10 C10            3.4250     6.7442    -2.7514 C.ar    
  11 C11            4.7025     6.2084    -2.5341 C.ar    
  12 O12            1.0740     7.3858    -1.9773 O.2     
  13 O13            2.9563     7.4310    -0.3334 O.2     
  14 C14            3.0848     7.1830    -3.9953 C.ar    
  15 C15            3.9886     7.1124    -5.0539 C.ar    
  16 C16            5.2391     6.6029    -4.8780 C.ar    
  17 C17            5.6239     6.1365    -3.6112 C.ar    
  18 C18           -0.8911    -0.5093     1.1401 C.3     
  19 N19           -2.2246     0.0945     1.0166 N.3     
  20 C20           -2.1639     1.5549     1.1634 C.3     
  21 C21           -1.3229     2.1448     0.0200 C.3     
  22 C22           -3.1111    -0.4624     1.9335 C.ar    
  23 C23           -4.4382    -0.0378     1.9944 C.ar    
  24 C24           -2.6971    -1.4639     2.8116 C.ar    
  25 C25           -3.6064    -1.9896     3.7049 C.ar    
  26 N26           -4.8531    -1.5568     3.7352 N.ar    
  27 C27           -5.2847    -0.6150     2.9173 C.ar    
  28 C28            6.8995     5.6014    -3.3692 C.ar    
  29 N29            7.2138     5.1781    -2.1673 N.ar    
  30 C30            6.3711     5.2300    -1.1448 C.ar    
  31 C31            5.1127     5.7336    -1.2749 C.ar    
  32 C32           -6.7192    -0.1603     2.9974 C.3     
  33 C33           -3.1716    -3.0725     4.6585 C.3     
  34 H34           -0.3779    -0.3702    -0.9518 H       
  35 H35            1.0222    -0.3573     0.1528 H       
  36 H36            0.4145     4.0817     0.7708 H       
  37 H37            2.7518     4.7987     0.9517 H       
  38 H38            3.2612     3.7060    -0.4094 H       
  39 H39            1.2098     3.6567    -2.2009 H       
  40 H40           -0.0998     4.7302    -1.5387 H       
  41 H41            2.0994     7.5917    -4.1639 H       
  42 H42            3.6922     7.4673    -6.0299 H       
  43 H43            5.9284     6.5543    -5.7080 H       
  44 H44           -0.9763    -1.5943     1.0813 H       
  45 H45           -0.4526    -0.2298     2.0981 H       
  46 H46           -3.1722     1.9669     1.1215 H       
  47 H47           -1.7077     1.8056     2.1210 H       
  48 H48           -1.1778     3.2123     0.1853 H       
  49 H49           -1.8328     1.9844    -0.9299 H       
  50 H50           -4.7978     0.7326     1.3283 H       
  51 H51           -1.6786    -1.8228     2.7918 H       
  52 H52            7.6205     5.5379    -4.1708 H       
  53 H53            6.6929     4.8646    -0.1807 H       
  54 H54            4.4423     5.7664    -0.4287 H       
  55 H55           -6.7993     0.6669     3.7027 H       
  56 H56           -7.0518     0.1683     2.0127 H       
  57 H57           -7.3442    -0.9872     3.3347 H       
  58 H58           -2.8017    -2.6195     5.5784 H       
  59 H59           -4.0199    -3.7178     4.8868 H       
  60 H60           -2.3786    -3.6634     4.2001 H       
@<TRIPOS>BOND
   1    1    2 1
   2    1    3 am
   3    1   21 1
   4    2   18 1
   5    2   34 1
   6    2   35 1
   7    3    4 1
   8    3    5 2
   9    4    6 1
  10    4    8 1
  11    4   36 1
  12    6    7 1
  13    6   37 1
  14    6   38 1
  15    7    8 1
  16    7    9 am
  17    8   39 1
  18    8   40 1
  19    9   10 1
  20    9   12 2
  21    9   13 2
  22   10   14 ar
  23   10   11 ar
  24   11   17 ar
  25   11   31 ar
  26   14   15 ar
  27   14   41 1
  28   15   16 ar
  29   15   42 1
  30   16   17 ar
  31   16   43 1
  32   17   28 ar
  33   18   19 1
  34   18   44 1
  35   18   45 1
  36   19   20 1
  37   19   22 1
  38   20   21 1
  39   20   46 1
  40   20   47 1
  41   21   48 1
  42   21   49 1
  43   22   23 ar
  44   22   24 ar
  45   23   27 ar
  46   23   50 1
  47   24   25 ar
  48   24   51 1
  49   25   26 ar
  50   25   33 1
  51   26   27 ar
  52   27   32 1
  53   28   29 ar
  54   28   52 1
  55   29   30 ar
  56   30   31 ar
  57   30   53 1
  58   31   54 1
  59   32   55 1
  60   32   56 1
  61   32   57 1
  62   33   58 1
  63   33   59 1
  64   33   60 1

#	End of record

