#	Name: ASD01900392
#	Creating user name:	WinNT
#	Creation time:	15. 06. 2019 19:51

#	Modifying user name:	WinNT
#	Modification time:	15. 06. 2019 19:51

#	Program:	/corina/corina34_cracker 3.40 0067  02.08.2006

@<TRIPOS>MOLECULE
ASD01900392
  62   66    0    0    0
SMALL
NO_CHARGES


@<TRIPOS>ATOM
   1 C1             0.1107     1.4945    -1.3259 C.ar    
   2 C2             0.0534     0.1186    -1.3228 C.ar    
   3 C3             1.0368    -0.6276    -0.6666 C.ar    
   4 C4             2.0799     0.0175    -0.0038 C.ar    
   5 C5             2.1376     1.4005    -0.0017 C.ar    
   6 C6             1.1552     2.1483    -0.6723 C.ar    
   7 N7             3.1540     2.0797     0.6665 N.pl3   
   8 C8             3.5121     3.4230     0.2027 C.3     
   9 N9             2.3512     4.2230    -0.1845 N.am    
  10 C10            1.2429     3.6219    -0.6671 C.2     
  11 C11            4.4748     4.1556     1.1457 C.3     
  12 C12            2.3888     5.6166    -0.0540 C.ar    
  13 C13            1.9421     6.2171     1.1158 C.ar    
  14 C14            1.9795     7.5914     1.2437 C.ar    
  15 C15            2.4628     8.3723     0.2039 C.ar    
  16 C16            2.9092     7.7732    -0.9649 C.ar    
  17 C17            2.8782     6.3986    -1.0920 C.ar    
  18 C18            3.0082    10.4677    -0.7794 C.3     
  19 O19            2.4984     9.7257     0.3303 O.3     
  20 O20            0.3219     4.2906    -1.0951 O.2     
  21 C21            0.9700    -2.1055    -0.6753 C.2     
  22 O22           -0.0373    -2.7304    -1.3147 O.3     
  23 O23            1.8235    -2.7552    -0.1057 O.2     
  24 C24           -0.0390    -4.1821    -1.2818 C.3     
  25 C25           -1.2496    -4.7083    -2.0555 C.3     
  26 F26            2.2222    10.2162    -1.9091 F       
  27 F27            2.9737    11.8343    -0.4821 F       
  28 F28            4.3279    10.0790    -1.0336 F       
  29 C29            4.6374     3.4285    -0.8397 C.3     
  30 C30            5.6199     3.5170     0.3409 C.3     
  31 C31            6.7950     4.4642     0.0903 C.3     
  32 C32            7.9085     3.7133    -0.5934 C.ar    
  33 C33            8.0811     3.8263    -1.9603 C.ar    
  34 C34            9.1020     3.1373    -2.5875 C.ar    
  35 C35            9.9511     2.3346    -1.8484 C.ar    
  36 C36            9.7798     2.2211    -0.4818 C.ar    
  37 C37            8.7615     2.9152     0.1475 C.ar    
  38 Cl38           8.5501     2.7788     1.8652 Cl      
  39 H39           -0.6494     2.0663    -1.8375 H       
  40 H40           -0.7555    -0.3865    -1.8296 H       
  41 H41            2.8385    -0.5585     0.5053 H       
  42 H42            3.6125     1.6743     1.4190 H       
  43 H43            4.4312     5.2411     1.0576 H       
  44 H44            4.4215     3.8110     2.1784 H       
  45 H45            1.5652     5.6093     1.9251 H       
  46 H46            1.6321     8.0586     2.1534 H       
  47 H47            3.2849     8.3818    -1.7741 H       
  48 H48            3.2302     5.9320    -2.0001 H       
  49 H49            0.8761    -4.5570    -1.7400 H       
  50 H50           -0.0932    -4.5219    -0.2475 H       
  51 H51           -2.1647    -4.3333    -1.5972 H       
  52 H52           -1.1954    -4.3684    -3.0897 H       
  53 H53           -1.2509    -5.7980    -2.0307 H       
  54 H54            4.7149     2.4991    -1.4039 H       
  55 H55            4.6388     4.3131    -1.4766 H       
  56 H56            5.9324     2.5450     0.7225 H       
  57 H57            6.4688     5.2879    -0.5447 H       
  58 H58            7.1531     4.8584     1.0413 H       
  59 H59            7.4179     4.4529    -2.5382 H       
  60 H60            9.2362     3.2256    -3.6555 H       
  61 H61           10.7481     1.7959    -2.3392 H       
  62 H62           10.4429     1.5938     0.0954 H       
@<TRIPOS>BOND
   1    1    2 ar
   2    1    6 ar
   3    1   39 1
   4    2    3 ar
   5    2   40 1
   6    3    4 ar
   7    3   21 1
   8    4    5 ar
   9    4   41 1
  10    5    7 1
  11    5    6 ar
  12    6   10 1
  13    7    8 1
  14    7   42 1
  15    8    9 1
  16    8   11 1
  17    8   29 1
  18    9   10 am
  19    9   12 1
  20   10   20 2
  21   11   30 1
  22   11   43 1
  23   11   44 1
  24   12   13 ar
  25   12   17 ar
  26   13   14 ar
  27   13   45 1
  28   14   15 ar
  29   14   46 1
  30   15   16 ar
  31   15   19 1
  32   16   17 ar
  33   16   47 1
  34   17   48 1
  35   18   19 1
  36   18   26 1
  37   18   27 1
  38   18   28 1
  39   21   22 1
  40   21   23 2
  41   22   24 1
  42   24   25 1
  43   24   49 1
  44   24   50 1
  45   25   51 1
  46   25   52 1
  47   25   53 1
  48   29   30 1
  49   29   54 1
  50   29   55 1
  51   30   31 1
  52   30   56 1
  53   31   32 1
  54   31   57 1
  55   31   58 1
  56   32   33 ar
  57   32   37 ar
  58   33   34 ar
  59   33   59 1
  60   34   35 ar
  61   34   60 1
  62   35   36 ar
  63   35   61 1
  64   36   37 ar
  65   36   62 1
  66   37   38 1

#	End of record

