#	Name: ASD01680101
#	Creating user name:	WinNT
#	Creation time:	15. 06. 2019 19:22

#	Modifying user name:	WinNT
#	Modification time:	15. 06. 2019 19:22

#	Program:	/corina/corina34_cracker 3.40 0067  02.08.2006

@<TRIPOS>MOLECULE
ASD01680101
  85   88    0    0    0
SMALL
NO_CHARGES


@<TRIPOS>ATOM
   1 C1            -1.5067     1.1892    -0.5739 C.2     
   2 C2            -1.3111    -0.3029    -0.6531 C.3     
   3 C3            -1.8132    -0.8120    -2.0058 C.3     
   4 O4            -0.5545     1.9158    -0.4152 O.2     
   5 O5            -2.7382     1.7115    -0.6853 O.3     
   6 N6             0.1128    -0.6170    -0.5111 N.am    
   7 S7             0.7293    -1.0127     0.9740 S.o2    
   8 O8             2.1084    -1.2914     0.7747 O.2     
   9 O9             0.2592    -0.0241     1.8800 O.2     
  10 C10           -0.0197    -2.5312     1.4619 C.ar    
  11 C11           -1.0982    -2.5234     2.3265 C.ar    
  12 C12           -1.6858    -3.7146     2.7093 C.ar    
  13 C13           -1.1952    -4.9137     2.2271 C.ar    
  14 C14           -0.1172    -4.9214     1.3617 C.ar    
  15 C15            0.4677    -3.7299     0.9756 C.ar    
  16 C16            1.6396    -3.7380     0.0281 C.3     
  17 C17           -1.8351    -6.2124     2.6452 C.3     
  18 C18           -1.6332    -1.2163     2.8522 C.3     
  19 N19           -1.5148    -2.2408    -2.1311 N.am    
  20 C20           -1.8678    -2.9076    -3.2480 C.2     
  21 O21           -2.4326    -2.3247    -4.1492 O.2     
  22 C22           -1.5609    -4.3773    -3.3769 C.3     
  23 O23           -2.0299    -4.8528    -4.6402 O.3     
  24 N24           -3.9661    -7.0201    -5.4893 N.am    
  25 C25           -2.9872    -7.0999    -4.3899 C.3     
  26 C26           -1.7871    -6.2431    -4.8645 C.3     
  27 C27           -1.7558    -6.5644    -6.3821 C.3     
  28 C28           -3.2510    -6.7092    -6.7357 C.3     
  29 C29           -3.4400    -7.8464    -7.7416 C.3     
  30 N30           -2.8120    -7.4823    -9.0141 N.pl3   
  31 C31           -2.7647    -8.4029   -10.0544 C.ar    
  32 C32           -3.3157    -9.6686    -9.8806 C.ar    
  33 C33           -3.2617   -10.5748   -10.9240 C.ar    
  34 C34           -2.6561   -10.1835   -12.1110 C.ar    
  35 C35           -2.1298    -8.9117   -12.2143 C.ar    
  36 N36           -2.2005    -8.0658   -11.2037 N.ar    
  37 C37           -5.2957    -7.2070    -5.3723 C.2     
  38 O38           -5.9979    -7.2036    -6.3611 O.2     
  39 C39           -5.9099    -7.4203    -4.0128 C.3     
  40 O40           -7.3217    -7.5933    -4.1497 O.3     
  41 C41           -8.0318    -7.7980    -3.0091 C.ar    
  42 C42           -9.4066    -7.9737    -3.0686 C.ar    
  43 C43          -10.1261    -8.1815    -1.9078 C.ar    
  44 C44           -9.4771    -8.2144    -0.6873 C.ar    
  45 C45           -8.1070    -8.0391    -0.6253 C.ar    
  46 C46           -7.3822    -7.8371    -1.7839 C.ar    
  47 H47           -1.8713    -0.7858     0.1475 H       
  48 H48           -2.8901    -0.6583    -2.0748 H       
  49 H49           -1.3160    -0.2654    -2.8071 H       
  50 H50           -2.8137     2.6738    -0.6282 H       
  51 H51            0.6945    -0.5931    -1.2870 H       
  52 H52           -2.5280    -3.7086     3.3853 H       
  53 H53            0.2664    -5.8582     0.9853 H       
  54 H54            2.5678    -3.6956     0.5980 H       
  55 H55            1.6197    -4.6512    -0.5665 H       
  56 H56            1.5789    -2.8730    -0.6323 H       
  57 H57           -2.6317    -6.4666     1.9459 H       
  58 H58           -1.0853    -7.0035     2.6450 H       
  59 H59           -2.2513    -6.1064     3.6470 H       
  60 H60           -2.1668    -0.6959     2.0568 H       
  61 H61           -2.3144    -1.4094     3.6808 H       
  62 H62           -0.8052    -0.5980     3.1991 H       
  63 H63           -1.0631    -2.7070    -1.4103 H       
  64 H64           -0.4840    -4.5310    -3.3078 H       
  65 H65           -2.0581    -4.9240    -2.5756 H       
  66 H66           -3.4103    -6.6862    -3.4745 H       
  67 H67           -2.6770    -8.1329    -4.2324 H       
  68 H68           -0.8644    -6.5598    -4.3784 H       
  69 H69           -1.3051    -5.7441    -6.9408 H       
  70 H70           -1.2235    -7.4973    -6.5679 H       
  71 H71           -3.6250    -5.7750    -7.1546 H       
  72 H72           -2.9773    -8.7544    -7.3548 H       
  73 H73           -4.5047    -8.0196    -7.8984 H       
  74 H74           -2.4291    -6.5987    -9.1306 H       
  75 H75           -3.7791    -9.9399    -8.9435 H       
  76 H76           -3.6807   -11.5645   -10.8180 H       
  77 H77           -2.5972   -10.8675   -12.9446 H       
  78 H78           -1.6580    -8.6033   -13.1355 H       
  79 H79           -5.4776    -8.3097    -3.5542 H       
  80 H80           -5.7095    -6.5531    -3.3835 H       
  81 H81           -9.9141    -7.9477    -4.0216 H       
  82 H82          -11.1965    -8.3179    -1.9535 H       
  83 H83          -10.0413    -8.3770     0.2191 H       
  84 H84           -7.6024    -8.0645     0.3292 H       
  85 H85           -6.3114    -7.7051    -1.7354 H       
@<TRIPOS>BOND
   1    1    2 1
   2    1    4 2
   3    1    5 1
   4    2    3 1
   5    2    6 1
   6    2   47 1
   7    3   19 1
   8    3   48 1
   9    3   49 1
  10    5   50 1
  11    6    7 am
  12    6   51 1
  13    7    8 2
  14    7    9 2
  15    7   10 1
  16   10   11 ar
  17   10   15 ar
  18   11   12 ar
  19   11   18 1
  20   12   13 ar
  21   12   52 1
  22   13   14 ar
  23   13   17 1
  24   14   15 ar
  25   14   53 1
  26   15   16 1
  27   16   54 1
  28   16   55 1
  29   16   56 1
  30   17   57 1
  31   17   58 1
  32   17   59 1
  33   18   60 1
  34   18   61 1
  35   18   62 1
  36   19   20 am
  37   19   63 1
  38   20   21 2
  39   20   22 1
  40   22   23 1
  41   22   64 1
  42   22   65 1
  43   23   26 1
  44   24   25 1
  45   24   28 1
  46   24   37 am
  47   25   26 1
  48   25   66 1
  49   25   67 1
  50   26   27 1
  51   26   68 1
  52   27   28 1
  53   27   69 1
  54   27   70 1
  55   28   29 1
  56   28   71 1
  57   29   30 1
  58   29   72 1
  59   29   73 1
  60   30   31 1
  61   30   74 1
  62   31   32 ar
  63   31   36 ar
  64   32   33 ar
  65   32   75 1
  66   33   34 ar
  67   33   76 1
  68   34   35 ar
  69   34   77 1
  70   35   36 ar
  71   35   78 1
  72   37   38 2
  73   37   39 1
  74   39   40 1
  75   39   79 1
  76   39   80 1
  77   40   41 1
  78   41   42 ar
  79   41   46 ar
  80   42   43 ar
  81   42   81 1
  82   43   44 ar
  83   43   82 1
  84   44   45 ar
  85   44   83 1
  86   45   46 ar
  87   45   84 1
  88   46   85 1

#	End of record

