#	Name: ASD01881921
#	Creating user name:	WinNT
#	Creation time:	15. 06. 2019 19:43

#	Modifying user name:	WinNT
#	Modification time:	15. 06. 2019 19:43

#	Program:	/corina/corina34_cracker 3.40 0067  02.08.2006

@<TRIPOS>MOLECULE
ASD01881921
  57   61    0    0    0
SMALL
NO_CHARGES


@<TRIPOS>ATOM
   1 N1             0.0267     1.4502     0.0476 N.3     
   2 C2            -0.1690     0.0033    -0.1089 C.3     
   3 C3             0.5724    -0.4810    -1.3571 C.3     
   4 C4             2.0631    -0.1610    -1.2156 C.3     
   5 C5             2.2359     1.3458    -1.0054 C.3     
   6 C6             1.4463     1.7771     0.2326 C.3     
   7 C7             2.6141    -0.8855    -0.0587 C.1     
   8 N8             3.0393    -1.4447     0.8341 N.1     
   9 C9             2.7894    -0.5815    -2.4673 C.ar    
  10 C10            4.1545    -0.3905    -2.5714 C.ar    
  11 C11            4.8208    -0.7761    -3.7196 C.ar    
  12 C12            4.1220    -1.3532    -4.7634 C.ar    
  13 C13            2.7570    -1.5450    -4.6589 C.ar    
  14 C14            2.0915    -1.1633    -3.5090 C.ar    
  15 C15           -0.7829     1.9741     1.1559 C.3     
  16 C16           -0.4790     3.4608     1.3510 C.3     
  17 O17           -0.8482     4.1811     0.1733 O.3     
  18 N18           -0.1202     9.6055    -0.0504 N.pl3   
  19 N19           -0.6212     9.7751    -1.3496 N.2     
  20 N20           -0.9841     8.6346    -1.8208 N.2     
  21 C21           -0.7635     7.6615    -0.9145 C.ar    
  22 C22           -0.2094     8.2610     0.2298 C.ar    
  23 C23           -0.9778     6.2763    -0.9258 C.ar    
  24 C24           -0.6419     5.5252     0.1815 C.ar    
  25 C25           -0.0933     6.1335     1.3080 C.ar    
  26 C26            0.1201     7.4830     1.3339 C.ar    
  27 C27            0.4012    10.6523     0.8320 C.3     
  28 C28           -0.7400    11.2225     1.6766 C.3     
  29 C29           -0.3787    12.2513     2.7499 C.3     
  30 C30           -1.0996    12.6960     1.4757 C.3     
  31 Br31          -1.7224     5.4418    -2.4506 Br      
  32 H32            0.2209    -0.5130     0.7683 H       
  33 H33           -1.2328    -0.2102    -0.2127 H       
  34 H34            0.4398    -1.5576    -1.4643 H       
  35 H35            0.1735     0.0248    -2.2364 H       
  36 H36            3.2919     1.5743    -0.8613 H       
  37 H37            1.8633     1.8802    -1.8792 H       
  38 H38            1.5557     2.8519     0.3768 H       
  39 H39            1.8287     1.2525     1.1082 H       
  40 H40            4.7005     0.0603    -1.7559 H       
  41 H41            5.8872    -0.6263    -3.8012 H       
  42 H42            4.6424    -1.6538    -5.6607 H       
  43 H43            2.2110    -1.9955    -5.4746 H       
  44 H44            1.0256    -1.3165    -3.4259 H       
  45 H45           -1.8405     1.8466     0.9251 H       
  46 H46           -0.5423     1.4310     2.0699 H       
  47 H47           -1.0467     3.8391     2.2012 H       
  48 H48            0.5867     3.5924     1.5382 H       
  49 H49            0.1649     5.5338     2.1682 H       
  50 H50            0.5458     7.9453     2.2123 H       
  51 H51            1.1622    10.2291     1.4877 H       
  52 H52            0.8412    11.4481     0.2310 H       
  53 H53           -1.5535    10.5310     1.8958 H       
  54 H54           -0.9548    12.2369     3.6751 H       
  55 H55            0.6720    12.5219     2.8542 H       
  56 H56           -0.5231    13.2592     0.7418 H       
  57 H57           -2.1499    12.9742     1.5626 H       
@<TRIPOS>BOND
   1    1    2 1
   2    1    6 1
   3    1   15 1
   4    2    3 1
   5    2   32 1
   6    2   33 1
   7    3    4 1
   8    3   34 1
   9    3   35 1
  10    4    5 1
  11    4    7 1
  12    4    9 1
  13    5    6 1
  14    5   36 1
  15    5   37 1
  16    6   38 1
  17    6   39 1
  18    7    8 3
  19    9   10 ar
  20    9   14 ar
  21   10   11 ar
  22   10   40 1
  23   11   12 ar
  24   11   41 1
  25   12   13 ar
  26   12   42 1
  27   13   14 ar
  28   13   43 1
  29   14   44 1
  30   15   16 1
  31   15   45 1
  32   15   46 1
  33   16   17 1
  34   16   47 1
  35   16   48 1
  36   17   24 1
  37   18   19 1
  38   18   22 1
  39   18   27 1
  40   19   20 2
  41   20   21 1
  42   21   22 ar
  43   21   23 ar
  44   22   26 ar
  45   23   24 ar
  46   23   31 1
  47   24   25 ar
  48   25   26 ar
  49   25   49 1
  50   26   50 1
  51   27   28 1
  52   27   51 1
  53   27   52 1
  54   28   29 1
  55   28   30 1
  56   28   53 1
  57   29   30 1
  58   29   54 1
  59   29   55 1
  60   30   56 1
  61   30   57 1

#	End of record

