#	Name: ASD01912337
#	Creating user name:	WinNT
#	Creation time:	15. 06. 2019 19:59

#	Modifying user name:	WinNT
#	Modification time:	15. 06. 2019 19:59

#	Program:	/corina/corina34_cracker 3.40 0067  02.08.2006

@<TRIPOS>MOLECULE
ASD01912337
  41   42    0    0    0
SMALL
NO_CHARGES


@<TRIPOS>ATOM
   1 C1            -0.0169     1.3937     0.0097 C.ar    
   2 C2             0.0021    -0.0041     0.0020 C.ar    
   3 C3             1.2200    -0.6586    -0.0132 C.ar    
   4 C4             2.3820     0.1017    -0.0202 C.ar    
   5 C5             2.2917     1.4816    -0.0120 C.ar    
   6 N6             1.1202     2.0835     0.0026 N.ar    
   7 C7             3.5515     2.3086    -0.0196 C.3     
   8 C8            -1.2694     2.0877     0.0194 C.1     
   9 C9            -2.2963     2.6567     0.0274 C.1     
  10 C10           -3.5488     3.3508     0.0371 C.2     
  11 N11           -3.6111     7.1939     1.1690 N.am    
  12 C12           -4.8645     6.4304     1.2214 C.3     
  13 C13           -4.8852     5.4347     0.0547 C.3     
  14 C14           -3.5723     4.6828     0.0444 C.2     
  15 C15           -2.2866     5.4804     0.0422 C.3     
  16 C16           -2.3311     6.4750     1.2091 C.3     
  17 C17           -3.6352     8.5385     1.0796 C.2     
  18 O18           -4.6962     9.1248     1.0420 O.2     
  19 C19           -2.3438     9.3134     1.0265 C.3     
  20 O20           -2.6300    10.7104     0.9339 O.3     
  21 C21           -1.4674    11.5394     0.8773 C.3     
  22 H22           -0.9211    -0.5645     0.0082 H       
  23 H23            1.2665    -1.7376    -0.0191 H       
  24 H24            3.3483    -0.3807    -0.0317 H       
  25 H25            3.8454     2.5135    -1.0490 H       
  26 H26            3.3719     3.2492     0.5010 H       
  27 H27            4.3485     1.7612     0.4837 H       
  28 H28           -4.4745     2.7944     0.0384 H       
  29 H29           -4.9231     5.8885     2.1653 H       
  30 H30           -5.7111     7.1115     1.1355 H       
  31 H31           -5.7089     4.7329     0.1857 H       
  32 H32           -5.0071     5.9731    -0.8852 H       
  33 H33           -1.4375     4.8082     0.1651 H       
  34 H34           -2.1928     6.0227    -0.8988 H       
  35 H35           -1.5099     7.1856     1.1152 H       
  36 H36           -2.2443     5.9358     2.1524 H       
  37 H37           -1.7665     9.1199     1.9306 H       
  38 H38           -1.7687     9.0018     0.1545 H       
  39 H39           -1.7694    12.5844     0.8082 H       
  40 H40           -0.8720    11.3921     1.7783 H       
  41 H41           -0.8742    11.2740     0.0023 H       
@<TRIPOS>BOND
   1    1    2 ar
   2    1    6 ar
   3    1    8 1
   4    2    3 ar
   5    2   22 1
   6    3    4 ar
   7    3   23 1
   8    4    5 ar
   9    4   24 1
  10    5    6 ar
  11    5    7 1
  12    7   25 1
  13    7   26 1
  14    7   27 1
  15    8    9 3
  16    9   10 1
  17   10   14 2
  18   10   28 1
  19   11   12 1
  20   11   16 1
  21   11   17 am
  22   12   13 1
  23   12   29 1
  24   12   30 1
  25   13   14 1
  26   13   31 1
  27   13   32 1
  28   14   15 1
  29   15   16 1
  30   15   33 1
  31   15   34 1
  32   16   35 1
  33   16   36 1
  34   17   18 2
  35   17   19 1
  36   19   20 1
  37   19   37 1
  38   19   38 1
  39   20   21 1
  40   21   39 1
  41   21   40 1
  42   21   41 1

#	End of record

