#	Name: ASD04800009
#	Creating user name:	WinNT
#	Creation time:	15. 06. 2019 20:52

#	Modifying user name:	WinNT
#	Modification time:	15. 06. 2019 20:52

#	Program:	/corina/corina34_cracker 3.40 0067  02.08.2006

@<TRIPOS>MOLECULE
ASD04800009
  37   38    0    0    0
SMALL
NO_CHARGES


@<TRIPOS>ATOM
   1 C1             0.3220     0.8248     1.0666 C.ar    
   2 C2             0.0025    -0.0048     0.0015 C.ar    
   3 C3             0.8747    -0.1248    -1.0707 C.ar    
   4 C4             2.0610     0.5818    -1.0783 C.ar    
   5 C5             2.3808     1.4123    -0.0130 C.ar    
   6 C6             1.5081     1.5317     1.0598 C.ar    
   7 N7             3.5867     2.1303    -0.0202 N.am    
   8 O8            -1.1654    -0.7006     0.0087 O.3     
   9 C9            -1.4300    -1.5356    -1.1204 C.3     
  10 C10            3.6346     3.4650    -0.1120 C.2     
  11 C11            5.0795     3.9138    -0.0918 C.3     
  12 C12            5.8666     2.5930     0.0289 C.3     
  13 C13            4.7835     1.5372     0.0699 C.2     
  14 O14            4.9702     0.3429     0.1624 O.2     
  15 O15            2.6728     4.1979    -0.1982 O.2     
  16 N16            5.4228     4.6080    -1.3401 N.3     
  17 C17            5.0889     6.0362    -1.2572 C.3     
  18 C18            5.4543     6.7135    -2.5529 C.2     
  19 O19            5.2371     8.0291    -2.7070 O.3     
  20 O20            5.9428     6.0723    -3.4530 O.2     
  21 C21            5.6136     8.6145    -3.9813 C.3     
  22 H22           -0.3592     0.9211     1.8992 H       
  23 H23            0.6259    -0.7712    -1.8993 H       
  24 H24            2.7400     0.4880    -1.9129 H       
  25 H25            1.7565     2.1778     1.8888 H       
  26 H26           -0.6434    -2.2847    -1.2107 H       
  27 H27           -2.3912    -2.0323    -0.9877 H       
  28 H28           -1.4574    -0.9268    -2.0241 H       
  29 H29            5.2703     4.5542     0.7694 H       
  30 H30            6.5129     2.4511    -0.8373 H       
  31 H31            6.4490     2.5763     0.9502 H       
  32 H32            6.3963     4.4771    -1.5707 H       
  33 H33            4.0199     6.1495    -1.0769 H       
  34 H34            5.6458     6.4926    -0.4389 H       
  35 H35            6.6819     8.4729    -4.1448 H       
  36 H36            5.0560     8.1298    -4.7827 H       
  37 H37            5.3854     9.6803    -3.9731 H       
@<TRIPOS>BOND
   1    1    2 ar
   2    1    6 ar
   3    1   22 1
   4    2    3 ar
   5    2    8 1
   6    3    4 ar
   7    3   23 1
   8    4    5 ar
   9    4   24 1
  10    5    6 ar
  11    5    7 1
  12    6   25 1
  13    7   10 am
  14    7   13 am
  15    8    9 1
  16    9   26 1
  17    9   27 1
  18    9   28 1
  19   10   11 1
  20   10   15 2
  21   11   12 1
  22   11   16 1
  23   11   29 1
  24   12   13 1
  25   12   30 1
  26   12   31 1
  27   13   14 2
  28   16   17 1
  29   16   32 1
  30   17   18 1
  31   17   33 1
  32   17   34 1
  33   18   19 1
  34   18   20 2
  35   19   21 1
  36   21   35 1
  37   21   36 1
  38   21   37 1

#	End of record

