#	Name: ASD00844645
#	Creating user name:	WinNT
#	Creation time:	15. 06. 2019 18:50

#	Modifying user name:	WinNT
#	Modification time:	15. 06. 2019 18:50

#	Program:	/corina/corina34_cracker 3.40 0067  02.08.2006

@<TRIPOS>MOLECULE
ASD00844645
  96  101    0    0    0
SMALL
NO_CHARGES


@<TRIPOS>ATOM
   1 C1             0.5439     1.2792    -0.7656 C.ar    
   2 C2             0.8607    -0.0603    -0.9380 C.ar    
   3 C3             0.7988    -0.9298     0.1415 C.ar    
   4 C4             0.4222    -0.4600     1.3846 C.ar    
   5 C5             0.1064     0.8757     1.5537 C.ar    
   6 C6             0.1677     1.7442     0.4798 C.ar    
   7 C7             1.1418    -2.3857    -0.0422 C.3     
   8 C8             0.8720    -3.1590     1.2310 C.2     
   9 C9             0.3482    -2.9790    -1.2080 C.3     
  10 C10           -1.1229    -2.7354    -0.9898 C.2     
  11 N11           -2.0222    -3.2001    -1.8796 N.am    
  12 O12           -1.4975    -2.1211    -0.0134 O.2     
  13 C13           -3.4474    -2.8688    -1.7461 C.3     
  14 C14           -4.2582    -4.1686    -1.7505 C.3     
  15 C15           -3.9152    -4.9749    -3.0053 C.3     
  16 C16           -2.4275    -5.3337    -2.9922 C.3     
  17 C17           -1.5951    -4.0425    -3.0051 C.3     
  18 C18           -4.7487    -6.2576    -3.0305 C.3     
  19 C19           -6.2375    -5.9002    -3.0453 C.3     
  20 C20           -7.0647    -7.1849    -3.1320 C.3     
  21 N21           -6.7067    -7.9176    -4.3533 N.3     
  22 C22           -5.2924    -8.3127    -4.3401 C.3     
  23 C23           -4.4123    -7.0617    -4.2894 C.3     
  24 C24           -7.5778    -9.0854    -4.5410 C.3     
  25 O25           -0.2010    -3.2886     1.7814 O.2     
  26 N26            2.0446    -3.6743     1.6370 N.am    
  27 C27            2.6267    -2.5555    -0.2679 C.ar    
  28 C28            3.0941    -3.3391     0.7799 C.ar    
  29 C29            3.4824    -2.1006    -1.2457 C.ar    
  30 C30            4.8279    -2.4238    -1.1916 C.ar    
  31 C31            5.3068    -3.2047    -0.1517 C.ar    
  32 C32            4.4483    -3.6615     0.8300 C.ar    
  33 Cl33           5.9108    -1.8531    -2.4225 Cl      
  34 F34            6.6192    -3.5208    -0.0975 F       
  35 C35            1.9850    -6.2800     2.5209 C.ar    
  36 C36            0.7460    -6.6995     2.0580 C.ar    
  37 C37            3.0332    -7.1769     2.6029 C.ar    
  38 C38            2.8506    -8.4928     2.2239 C.ar    
  39 C39            1.6131    -8.9173     1.7601 C.ar    
  40 C40            0.5601    -8.0197     1.6775 C.ar    
  41 O41            1.4340   -10.2120     1.3879 O.3     
  42 O42           -0.2844    -5.8171     1.9781 O.3     
  43 C43            2.5626   -11.0813     1.4999 C.3     
  44 C44           -1.5315    -6.3183     1.4925 C.3     
  45 C45           -2.5627    -5.1883     1.4738 C.3     
  46 O46            1.2305    -0.5202    -2.1621 O.3     
  47 C47            1.1916     0.4122    -3.2444 C.3     
  48 C48            1.6986    -0.2649    -4.5193 C.3     
  49 F49            2.9825    -0.7746    -4.2976 F       
  50 F50            0.8357    -1.3097    -4.8672 F       
  51 S51            2.2240    -4.6007     2.9979 S.o2    
  52 O52            3.5860    -4.4838     3.3861 O.2     
  53 O53            1.1403    -4.2688     3.8550 O.2     
  54 H54            0.5956     1.9588    -1.6034 H       
  55 H55            0.3739    -1.1364     2.2251 H       
  56 H56           -0.1885     1.2410     2.5263 H       
  57 H57           -0.0794     2.7869     0.6144 H       
  58 H58            0.6608    -2.5054    -2.1387 H       
  59 H59            0.5342    -4.0514    -1.2658 H       
  60 H60           -3.6129    -2.3381    -0.8086 H       
  61 H61           -3.7568    -2.2423    -2.5827 H       
  62 H62           -4.0130    -4.7533    -0.8640 H       
  63 H63           -5.3225    -3.9334    -1.7489 H       
  64 H64           -4.1375    -4.3800    -3.8912 H       
  65 H65           -2.1995    -5.9075    -2.0940 H       
  66 H66           -2.1888    -5.9278    -3.8744 H       
  67 H67           -1.7547    -3.5142    -3.9451 H       
  68 H68           -0.5387    -4.2877    -2.8961 H       
  69 H69           -4.5260    -6.8542    -2.1458 H       
  70 H70           -6.4922    -5.3644    -2.1309 H       
  71 H71           -6.4520    -5.2703    -3.9086 H       
  72 H72           -6.8601    -7.8081    -2.2615 H       
  73 H73           -8.1249    -6.9332    -3.1572 H       
  74 H74           -5.0961    -8.9306    -3.4639 H       
  75 H75           -5.0654    -8.8801    -5.2427 H       
  76 H76           -4.5981    -6.4501    -5.1723 H       
  77 H77           -3.3631    -7.3557    -4.2639 H       
  78 H78           -8.6139    -8.7566    -4.6218 H       
  79 H79           -7.2910    -9.6098    -5.4525 H       
  80 H80           -7.4750    -9.7563    -3.6881 H       
  81 H81            3.1046    -1.4926    -2.0545 H       
  82 H82            4.8281    -4.2694     1.6379 H       
  83 H83            3.9968    -6.8485     2.9634 H       
  84 H84            3.6714    -9.1917     2.2881 H       
  85 H85           -0.4036    -8.3482     1.3172 H       
  86 H86            3.3734   -10.7065     0.8753 H       
  87 H87            2.8913   -11.1180     2.5386 H       
  88 H88            2.2839   -12.0826     1.1714 H       
  89 H89           -1.3988    -6.7059     0.4825 H       
  90 H90           -1.8807    -7.1181     2.1456 H       
  91 H91           -2.2135    -4.3885     0.8207 H       
  92 H92           -3.5140    -5.5705     1.1034 H       
  93 H93           -2.6955    -4.8006     2.4838 H       
  94 H94            0.1666     0.7506    -3.3957 H       
  95 H95            1.8257     1.2672    -3.0103 H       
  96 H96            1.7319     0.4639    -5.3291 H       
@<TRIPOS>BOND
   1    1    2 ar
   2    1    6 ar
   3    1   54 1
   4    2    3 ar
   5    2   46 1
   6    3    4 ar
   7    3    7 1
   8    4    5 ar
   9    4   55 1
  10    5    6 ar
  11    5   56 1
  12    6   57 1
  13    7    8 1
  14    7    9 1
  15    7   27 1
  16    8   25 2
  17    8   26 am
  18    9   10 1
  19    9   58 1
  20    9   59 1
  21   10   11 am
  22   10   12 2
  23   11   13 1
  24   11   17 1
  25   13   14 1
  26   13   60 1
  27   13   61 1
  28   14   15 1
  29   14   62 1
  30   14   63 1
  31   15   16 1
  32   15   18 1
  33   15   64 1
  34   16   17 1
  35   16   65 1
  36   16   66 1
  37   17   67 1
  38   17   68 1
  39   18   19 1
  40   18   23 1
  41   18   69 1
  42   19   20 1
  43   19   70 1
  44   19   71 1
  45   20   21 1
  46   20   72 1
  47   20   73 1
  48   21   22 1
  49   21   24 1
  50   22   23 1
  51   22   74 1
  52   22   75 1
  53   23   76 1
  54   23   77 1
  55   24   78 1
  56   24   79 1
  57   24   80 1
  58   26   51 am
  59   26   28 1
  60   27   28 ar
  61   27   29 ar
  62   28   32 ar
  63   29   30 ar
  64   29   81 1
  65   30   31 ar
  66   30   33 1
  67   31   32 ar
  68   31   34 1
  69   32   82 1
  70   35   36 ar
  71   35   37 ar
  72   35   51 1
  73   36   42 1
  74   36   40 ar
  75   37   38 ar
  76   37   83 1
  77   38   39 ar
  78   38   84 1
  79   39   40 ar
  80   39   41 1
  81   40   85 1
  82   41   43 1
  83   42   44 1
  84   43   86 1
  85   43   87 1
  86   43   88 1
  87   44   45 1
  88   44   89 1
  89   44   90 1
  90   45   91 1
  91   45   92 1
  92   45   93 1
  93   46   47 1
  94   47   48 1
  95   47   94 1
  96   47   95 1
  97   48   49 1
  98   48   50 1
  99   48   96 1
 100   51   52 2
 101   51   53 2

#	End of record

