#	Name: ASD01884438
#	Creating user name:	WinNT
#	Creation time:	15. 06. 2019 19:48

#	Modifying user name:	WinNT
#	Modification time:	15. 06. 2019 19:48

#	Program:	/corina/corina34_cracker 3.40 0067  02.08.2006

@<TRIPOS>MOLECULE
ASD01884438
  38   40    0    0    0
SMALL
NO_CHARGES


@<TRIPOS>ATOM
   1 C1            -0.0164     1.3575     0.0095 C.2     
   2 C2             0.0021    -0.0041     0.0020 C.2     
   3 C3             1.2441    -0.6750    -0.0134 C.2     
   4 C4             2.4025     0.0467    -0.0206 C.2     
   5 N5             2.3701     1.4021    -0.0130 N.am    
   6 C6             1.1988     2.0651     0.0017 C.2     
   7 C7             1.2900    -2.1582    -0.0214 C.ar    
   8 C8             3.6267     2.1552    -0.0210 C.3     
   9 O9             1.1913     3.2854     0.0083 O.2     
  10 C10            4.0440     2.4211    -1.4445 C.ar    
  11 C11            3.6199     3.5700    -2.0857 C.ar    
  12 C12            4.0023     3.8144    -3.3912 C.ar    
  13 C13            4.8097     2.9088    -4.0563 C.ar    
  14 C14            5.2338     1.7592    -3.4140 C.ar    
  15 C15            4.8554     1.5187    -2.1066 C.ar    
  16 C16            0.8132    -2.8779     1.0718 C.ar    
  17 C17            1.8050    -2.8359    -1.1250 C.ar    
  18 C18            1.8459    -4.2153    -1.1284 C.ar    
  19 C19            1.3765    -4.9268    -0.0392 C.ar    
  20 C20            0.8585    -4.2597     1.0588 C.ar    
  21 Cl21           5.2900     3.2148    -5.6962 Cl      
  22 F22            0.4019    -4.9598     2.1201 F       
  23 C23            1.4231    -6.4331    -0.0495 C.3     
  24 H24           -0.9563     1.8894     0.0168 H       
  25 H25           -0.9217    -0.5636     0.0082 H       
  26 H26            3.3529    -0.4662    -0.0321 H       
  27 H27            3.4858     3.1026     0.4993 H       
  28 H28            4.4007     1.5758     0.4824 H       
  29 H29            2.9894     4.2766    -1.5665 H       
  30 H30            3.6707     4.7118    -3.8922 H       
  31 H31            5.8641     1.0520    -3.9326 H       
  32 H32            5.1864     0.6212    -1.6051 H       
  33 H33            0.4094    -2.3576     1.9278 H       
  34 H34            2.1713    -2.2821    -1.9768 H       
  35 H35            2.2450    -4.7404    -1.9836 H       
  36 H36            2.3715    -6.7702     0.3689 H       
  37 H37            0.6016    -6.8261     0.5495 H       
  38 H38            1.3299    -6.7925    -1.0743 H       
@<TRIPOS>BOND
   1    1    2 2
   2    1    6 1
   3    1   24 1
   4    2    3 1
   5    2   25 1
   6    3    4 2
   7    3    7 1
   8    4    5 1
   9    4   26 1
  10    5    6 am
  11    5    8 1
  12    6    9 2
  13    7   16 ar
  14    7   17 ar
  15    8   10 1
  16    8   27 1
  17    8   28 1
  18   10   11 ar
  19   10   15 ar
  20   11   12 ar
  21   11   29 1
  22   12   13 ar
  23   12   30 1
  24   13   14 ar
  25   13   21 1
  26   14   15 ar
  27   14   31 1
  28   15   32 1
  29   16   20 ar
  30   16   33 1
  31   17   18 ar
  32   17   34 1
  33   18   19 ar
  34   18   35 1
  35   19   20 ar
  36   19   23 1
  37   20   22 1
  38   23   36 1
  39   23   37 1
  40   23   38 1

#	End of record

