#	Name: ASD02030100
#	Creating user name:	WinNT
#	Creation time:	15. 06. 2019 20:14

#	Modifying user name:	WinNT
#	Modification time:	15. 06. 2019 20:14

#	Program:	/corina/corina34_cracker 3.40 0067  02.08.2006

@<TRIPOS>MOLECULE
ASD02030100
  58   62    0    0    0
SMALL
NO_CHARGES


@<TRIPOS>ATOM
   1 N1            -0.2112     1.4210    -0.1437 N.am    
   2 C2            -0.0218    -0.0124     0.1192 C.3     
   3 C3            -0.9182    -0.4175     1.2960 C.3     
   4 N4            -2.2770     0.0831     1.0453 N.am    
   5 C5            -2.4664     1.5166     0.7824 C.3     
   6 C6            -1.5707     1.9226    -0.3888 C.3     
   7 C7             0.8423     2.2616    -0.1543 C.2     
   8 C8             2.1846     1.7690     0.2212 C.2     
   9 N9             3.2639     2.5055     0.3749 N.2     
  10 N10            2.5166     0.4892     0.4716 N.2     
  11 C11            3.7912     0.4688     0.7678 C.2     
  12 N12            4.2450     1.7374     0.7032 N.pl3   
  13 O13            0.6887     3.4247    -0.4726 O.2     
  14 C14           -3.3305    -0.7574     1.0559 C.2     
  15 C15           -4.7001    -0.2260     0.9125 C.ar    
  16 O16           -3.1527    -1.9534     1.1836 O.2     
  17 C17           -1.5431     3.4475    -0.5096 C.3     
  18 C18           -2.1099     1.3112    -1.6836 C.3     
  19 C19            5.5612     2.1501     0.9509 C.ar    
  20 C20            5.8998     3.4929     0.8500 C.ar    
  21 C21            7.1978     3.8966     1.0947 C.ar    
  22 C22            8.1598     2.9649     1.4394 C.ar    
  23 C23            7.8256     1.6269     1.5407 C.ar    
  24 C24            6.5280     1.2179     1.3033 C.ar    
  25 C25           -5.6721    -0.9679     0.2375 C.ar    
  26 C26           -6.9500    -0.4682     0.1040 C.ar    
  27 C27           -7.2760     0.7734     0.6389 C.ar    
  28 C28           -6.3116     1.5160     1.3154 C.ar    
  29 C29           -5.0294     1.0179     1.4564 C.ar    
  30 O30           -8.5407     1.2502     0.4887 O.3     
  31 C31           -8.9334     2.3192     1.3560 C.3     
  32 C32           -7.8084     3.3629     1.3730 C.3     
  33 O33           -6.6171     2.7295     1.8519 O.3     
  34 Cl34          -8.1564    -1.3918    -0.7356 Cl      
  35 H35           -0.2980    -0.5862    -0.7654 H       
  36 H36            1.0213    -0.2034     0.3712 H       
  37 H37           -0.9388    -1.5038     1.3831 H       
  38 H38           -0.5318     0.0186     2.2172 H       
  39 H39           -3.5095     1.7076     0.5304 H       
  40 H40           -2.1903     2.0904     1.6670 H       
  41 H41            4.3733    -0.4049     1.0211 H       
  42 H42           -1.0462     3.8721     0.3628 H       
  43 H43           -0.9997     3.7309    -1.4110 H       
  44 H44           -2.5637     3.8261    -0.5665 H       
  45 H45           -3.1233     1.6713    -1.8609 H       
  46 H46           -1.4700     1.6019    -2.5167 H       
  47 H47           -2.1206     0.2248    -1.5955 H       
  48 H48            5.1491     4.2209     0.5802 H       
  49 H49            7.4618     4.9409     1.0164 H       
  50 H50            9.1742     3.2829     1.6295 H       
  51 H51            8.5792     0.9016     1.8101 H       
  52 H52            6.2675     0.1728     1.3828 H       
  53 H53           -5.4227    -1.9323    -0.1798 H       
  54 H54           -4.2805     1.5941     1.9795 H       
  55 H55           -9.8517     2.7747     0.9853 H       
  56 H56           -9.0937     1.9352     2.3634 H       
  57 H57           -7.6434     3.7420     0.3645 H       
  58 H58           -8.0795     4.1848     2.0356 H       
@<TRIPOS>BOND
   1    1    2 1
   2    1    7 am
   3    1    6 1
   4    2    3 1
   5    2   35 1
   6    2   36 1
   7    3    4 1
   8    3   37 1
   9    3   38 1
  10    4    5 1
  11    4   14 am
  12    5    6 1
  13    5   39 1
  14    5   40 1
  15    6   17 1
  16    6   18 1
  17    7    8 1
  18    7   13 2
  19    8    9 2
  20    8   10 1
  21    9   12 1
  22   10   11 2
  23   11   12 1
  24   11   41 1
  25   12   19 1
  26   14   15 1
  27   14   16 2
  28   15   25 ar
  29   15   29 ar
  30   17   42 1
  31   17   43 1
  32   17   44 1
  33   18   45 1
  34   18   46 1
  35   18   47 1
  36   19   20 ar
  37   19   24 ar
  38   20   21 ar
  39   20   48 1
  40   21   22 ar
  41   21   49 1
  42   22   23 ar
  43   22   50 1
  44   23   24 ar
  45   23   51 1
  46   24   52 1
  47   25   26 ar
  48   25   53 1
  49   26   27 ar
  50   26   34 1
  51   27   28 ar
  52   27   30 1
  53   28   29 ar
  54   28   33 1
  55   29   54 1
  56   30   31 1
  57   31   32 1
  58   31   55 1
  59   31   56 1
  60   32   33 1
  61   32   57 1
  62   32   58 1

#	End of record

