#	Name: ASD01816746
#	Creating user name:	WinNT
#	Creation time:	15. 06. 2019 19:35

#	Modifying user name:	WinNT
#	Modification time:	15. 06. 2019 19:35

#	Program:	/corina/corina34_cracker 3.40 0067  02.08.2006

@<TRIPOS>MOLECULE
ASD01816746
  63   67    0    0    0
SMALL
NO_CHARGES


@<TRIPOS>ATOM
   1 C1            -0.0155     1.3877     0.0083 C.2     
   2 C2             0.0058    -0.0136     0.0003 C.2     
   3 C3             1.2032    -0.6670    -0.0145 C.2     
   4 C4             2.3954     0.0764    -0.0215 C.2     
   5 N5             2.3451     1.4440    -0.0130 N.am    
   6 C6             1.1423     2.0861     0.0014 C.2     
   7 C7             3.6272    -0.5921    -0.0366 C.2     
   8 C8             4.7911     0.1214    -0.0435 C.2     
   9 C9             4.7351     1.5266    -0.0352 C.2     
  10 C10            3.4814     2.1697    -0.0197 C.2     
  11 C11            3.6669    -2.0985    -0.0447 C.3     
  12 O12            3.4239     3.3879    -0.0125 O.2     
  13 C13            5.9710     2.3159    -0.0418 C.2     
  14 N14            6.6587     2.5007     1.1025 N.am    
  15 O15            6.3758     2.8042    -1.0806 O.2     
  16 N16            3.7874    -2.5777    -1.4281 N.3     
  17 C17            4.0665    -4.0201    -1.4634 C.3     
  18 C18            4.1056    -4.4939    -2.9182 C.3     
  19 N19            5.1368    -3.7429    -3.6478 N.3     
  20 C20            4.8576    -2.3005    -3.6125 C.3     
  21 C21            4.8185    -1.8266    -2.1577 C.3     
  22 C22            5.2509    -4.1969    -4.9586 C.ar    
  23 C23            6.1765    -3.6120    -5.8178 C.ar    
  24 C24            6.2920    -4.0585    -7.1147 C.ar    
  25 C25            5.4786    -5.1012    -7.5684 C.ar    
  26 C26            4.5502    -5.6868    -6.7024 C.ar    
  27 C27            4.4433    -5.2386    -5.4053 C.ar    
  28 C28            7.9546     3.1930     1.0937 C.3     
  29 C29            7.9062     4.3429     2.1046 C.3     
  30 C30            7.4950     3.7964     3.4737 C.3     
  31 C31            6.0986     3.1772     3.3791 C.3     
  32 C32            6.1239     2.0190     2.3834 C.3     
  33 C33            5.5957    -5.5680    -8.9171 C.1     
  34 N34            5.6887    -5.9383    -9.9870 N.1     
  35 H35           -0.9599     1.9116     0.0155 H       
  36 H36           -0.9187    -0.5719     0.0061 H       
  37 H37            1.2345    -1.7465    -0.0205 H       
  38 H38            1.1140     3.1657     0.0079 H       
  39 H39            5.7437    -0.3874    -0.0547 H       
  40 H40            4.5235    -2.4426     0.5349 H       
  41 H41            2.7495    -2.4885     0.3963 H       
  42 H42            5.0292    -4.2158    -0.9912 H       
  43 H43            3.2827    -4.5554    -0.9276 H       
  44 H44            4.3412    -5.5578    -2.9479 H       
  45 H45            3.1344    -4.3231    -3.3826 H       
  46 H46            5.6414    -1.7652    -4.1484 H       
  47 H47            3.8949    -2.1047    -4.0847 H       
  48 H48            4.5829    -0.7628    -2.1280 H       
  49 H49            5.7897    -1.9974    -1.6934 H       
  50 H50            6.8045    -2.8066    -5.4667 H       
  51 H51            7.0099    -3.6038    -7.7812 H       
  52 H52            3.9201    -6.4922    -7.0498 H       
  53 H53            3.7266    -5.6908    -4.7358 H       
  54 H54            8.7439     2.4947     1.3721 H       
  55 H55            8.1499     3.5901     0.0976 H       
  56 H56            8.8909     4.8045     2.1780 H       
  57 H57            7.1793     5.0858     1.7761 H       
  58 H58            8.2087     3.0358     3.7904 H       
  59 H59            7.4836     4.6086     4.2005 H       
  60 H60            5.7967     2.8091     4.3597 H       
  61 H61            5.3887     3.9310     3.0387 H       
  62 H62            5.1124     1.6393     2.2388 H       
  63 H63            6.7640     1.2234     2.7645 H       
@<TRIPOS>BOND
   1    1    2 1
   2    1    6 2
   3    1   35 1
   4    2    3 2
   5    2   36 1
   6    3    4 1
   7    3   37 1
   8    4    5 1
   9    4    7 2
  10    5    6 1
  11    5   10 am
  12    6   38 1
  13    7    8 1
  14    7   11 1
  15    8    9 2
  16    8   39 1
  17    9   10 1
  18    9   13 1
  19   10   12 2
  20   11   16 1
  21   11   40 1
  22   11   41 1
  23   13   15 2
  24   13   14 am
  25   14   28 1
  26   14   32 1
  27   16   17 1
  28   16   21 1
  29   17   18 1
  30   17   42 1
  31   17   43 1
  32   18   19 1
  33   18   44 1
  34   18   45 1
  35   19   20 1
  36   19   22 1
  37   20   21 1
  38   20   46 1
  39   20   47 1
  40   21   48 1
  41   21   49 1
  42   22   23 ar
  43   22   27 ar
  44   23   24 ar
  45   23   50 1
  46   24   25 ar
  47   24   51 1
  48   25   26 ar
  49   25   33 1
  50   26   27 ar
  51   26   52 1
  52   27   53 1
  53   28   29 1
  54   28   54 1
  55   28   55 1
  56   29   30 1
  57   29   56 1
  58   29   57 1
  59   30   31 1
  60   30   58 1
  61   30   59 1
  62   31   32 1
  63   31   60 1
  64   31   61 1
  65   32   62 1
  66   32   63 1
  67   33   34 3

#	End of record

