#	Name: ASD01814714
#	Creating user name:	WinNT
#	Creation time:	15. 06. 2019 19:32

#	Modifying user name:	WinNT
#	Modification time:	15. 06. 2019 19:32

#	Program:	/corina/corina34_cracker 3.40 0067  02.08.2006

@<TRIPOS>MOLECULE
ASD01814714
  59   63    0    0    0
SMALL
NO_CHARGES


@<TRIPOS>ATOM
   1 C1            -0.0184     1.5040     0.0103 C.3     
   2 C2             0.0021    -0.0041     0.0020 C.ar    
   3 C3             1.3469    -0.3809    -0.0128 C.ar    
   4 C4             2.1705     0.8434    -0.0141 C.2     
   5 C5            -0.9872    -0.9601     0.0059 C.ar    
   6 C6            -0.6509    -2.3033    -0.0049 C.ar    
   7 C7             0.6785    -2.6876    -0.0192 C.ar    
   8 C8             1.6782    -1.7372    -0.0240 C.ar    
   9 O9             3.3858     0.8631    -0.0253 O.2     
  10 C10            1.0356    -4.1516    -0.0299 C.3     
  11 C11            1.0213    -4.6618    -1.4478 C.ar    
  12 C12           -0.1465    -5.1737    -1.9842 C.ar    
  13 C13            2.1743    -4.6114    -2.2101 C.ar    
  14 C14            2.1665    -5.0765    -3.5096 C.ar    
  15 C15            0.9945    -5.5979    -4.0530 C.ar    
  16 C16           -0.1653    -5.6419    -3.2825 C.ar    
  17 C17            0.9799    -6.0991    -5.4502 C.2     
  18 N18            1.3846     1.9338    -0.0008 N.am    
  19 C19           -0.0848    -6.6293    -6.1197 C.2     
  20 N20            2.0118    -6.1168    -6.3128 N.2     
  21 N21            1.6131    -6.6244    -7.4252 N.2     
  22 N22            0.3690    -6.9442    -7.3539 N.pl3   
  23 C23           -2.4361    -0.5457     0.0225 C.3     
  24 C24           -1.7355    -3.3495    -0.0006 C.3     
  25 C25           -0.4234    -7.5448    -8.4298 C.3     
  26 C26            1.8517     3.3224     0.0018 C.3     
  27 C27            2.0279     3.7985     1.4451 C.3     
  28 C28            2.4088     5.2945     1.4602 C.3     
  29 O29            3.0945     3.0740     2.0690 O.3     
  30 C30            4.1456     3.9770     2.4471 C.3     
  31 C31            3.4571     5.3562     2.6044 C.3     
  32 H32           -0.5313     1.8765    -0.8764 H       
  33 H33           -0.5142     1.8670     0.9106 H       
  34 H34            2.7144    -2.0414    -0.0354 H       
  35 H35            2.0306    -4.2860     0.3945 H       
  36 H36            0.3095    -4.7071     0.5635 H       
  37 H37           -1.0450    -5.2073    -1.3859 H       
  38 H38            3.0824    -4.2070    -1.7878 H       
  39 H39            3.0672    -5.0360    -4.1041 H       
  40 H40           -1.0776    -6.0413    -3.7003 H       
  41 H41           -1.0863    -6.7692    -5.7405 H       
  42 H42           -2.7954    -0.4397    -1.0011 H       
  43 H43           -3.0251    -1.3046     0.5376 H       
  44 H44           -2.5356     0.4068     0.5430 H       
  45 H45           -2.0067    -3.5959    -1.0272 H       
  46 H46           -1.3743    -4.2452     0.5048 H       
  47 H47           -2.6100    -2.9642     0.5237 H       
  48 H48           -0.8773    -6.7565    -9.0303 H       
  49 H49            0.2233    -8.1551    -9.0601 H       
  50 H50           -1.2059    -8.1697    -7.9993 H       
  51 H51            2.8062     3.3856    -0.5208 H       
  52 H52            1.1192     3.9530    -0.5020 H       
  53 H53            1.1025     3.6455     2.0004 H       
  54 H54            2.8534     5.5912     0.5103 H       
  55 H55            1.5423     5.9130     1.6943 H       
  56 H56            4.5898     3.6659     3.3926 H       
  57 H57            4.9059     4.0205     1.6672 H       
  58 H58            4.1653     6.1693     2.4450 H       
  59 H59            2.9726     5.4447     3.5768 H       
@<TRIPOS>BOND
   1    1    2 1
   2    1   18 1
   3    1   32 1
   4    1   33 1
   5    2    3 ar
   6    2    5 ar
   7    3    4 1
   8    3    8 ar
   9    4    9 2
  10    4   18 am
  11    5    6 ar
  12    5   23 1
  13    6    7 ar
  14    6   24 1
  15    7   10 1
  16    7    8 ar
  17    8   34 1
  18   10   11 1
  19   10   35 1
  20   10   36 1
  21   11   13 ar
  22   11   12 ar
  23   12   16 ar
  24   12   37 1
  25   13   14 ar
  26   13   38 1
  27   14   15 ar
  28   14   39 1
  29   15   16 ar
  30   15   17 1
  31   16   40 1
  32   17   20 1
  33   17   19 2
  34   18   26 1
  35   19   22 1
  36   19   41 1
  37   20   21 2
  38   21   22 1
  39   22   25 1
  40   23   42 1
  41   23   43 1
  42   23   44 1
  43   24   45 1
  44   24   46 1
  45   24   47 1
  46   25   48 1
  47   25   49 1
  48   25   50 1
  49   26   27 1
  50   26   51 1
  51   26   52 1
  52   27   29 1
  53   27   28 1
  54   27   53 1
  55   28   31 1
  56   28   54 1
  57   28   55 1
  58   29   30 1
  59   30   31 1
  60   30   56 1
  61   30   57 1
  62   31   58 1
  63   31   59 1

#	End of record

