#	Name: ASD02408035
#	Creating user name:	WinNT
#	Creation time:	15. 06. 2019 20:21

#	Modifying user name:	WinNT
#	Modification time:	15. 06. 2019 20:21

#	Program:	/corina/corina34_cracker 3.40 0067  02.08.2006

@<TRIPOS>MOLECULE
ASD02408035
  30   30    0    0    0
SMALL
NO_CHARGES


@<TRIPOS>ATOM
   1 O1            -0.1008     1.5181    -0.4852 O.3     
   2 S2             3.9174     3.1341    -0.0730 S.3     
   3 C3             2.4506     4.1086    -0.0133 C.2     
   4 C4             1.1969     3.4909    -0.0830 C.2     
   5 C5             1.1063     2.0967    -0.3135 C.2     
   6 N6             2.5372     5.4660     0.1008 N.pl3   
   7 O7             2.1171     1.4201    -0.3568 O.2     
   8 C8             3.8409     6.1021     0.3061 C.3     
   9 S9             4.6912     3.7624    -1.8757 S.3     
  10 C10           -0.1176     0.1076    -0.7136 C.3     
  11 C11            3.7727     7.5857    -0.0966 C.3     
  12 C12            4.1085     8.4016     1.1689 C.3     
  13 C13            4.9272     7.4222     2.0462 C.3     
  14 C14            4.2157     6.0683     1.8021 C.3     
  15 C15            0.0055     4.2687     0.0789 C.1     
  16 N16           -0.9396     4.8858     0.2073 N.1     
  17 H17            1.7356     6.0095     0.0460 H       
  18 H18            4.6025     5.5902    -0.2821 H       
  19 H19            5.8259     3.0482    -1.9833 H       
  20 H20            0.3339    -0.4035     0.1367 H       
  21 H21           -1.1473    -0.2286    -0.8347 H       
  22 H22            0.4479    -0.1210    -1.6170 H       
  23 H23            4.5019     7.7940    -0.8795 H       
  24 H24            2.7697     7.8324    -0.4447 H       
  25 H25            4.7074     9.2752     0.9117 H       
  26 H26            3.1952     8.7018     1.6827 H       
  27 H27            5.9640     7.3794     1.7127 H       
  28 H28            4.8697     7.7049     3.0973 H       
  29 H29            3.3197     5.9916     2.4182 H       
  30 H30            4.8928     5.2391     2.0071 H       
@<TRIPOS>BOND
   1    1   10 1
   2    1    5 1
   3    2    3 1
   4    2    9 1
   5    3    4 2
   6    3    6 1
   7    4    5 1
   8    4   15 1
   9    5    7 2
  10    6    8 1
  11    6   17 1
  12    8   11 1
  13    8   14 1
  14    8   18 1
  15    9   19 1
  16   10   20 1
  17   10   21 1
  18   10   22 1
  19   11   12 1
  20   11   23 1
  21   11   24 1
  22   12   13 1
  23   12   25 1
  24   12   26 1
  25   13   14 1
  26   13   27 1
  27   13   28 1
  28   14   29 1
  29   14   30 1
  30   15   16 3

#	End of record

