#	Name: ASD09610073
#	Creating user name:	WinNT
#	Creation time:	15. 06. 2019 21:22

#	Modifying user name:	WinNT
#	Modification time:	15. 06. 2019 21:22

#	Program:	/corina/corina34_cracker 3.40 0067  02.08.2006

@<TRIPOS>MOLECULE
ASD09610073
  39   41    0    0    0
SMALL
NO_CHARGES


@<TRIPOS>ATOM
   1 N1            -0.0152     1.4349     0.2069 N.pl3   
   2 N2             0.0082     0.2329     0.9230 N.2     
   3 C3             1.2492    -0.1063     1.1388 C.2     
   4 C4             2.0790     0.8804     0.5604 C.2     
   5 C5             1.2507     1.8253    -0.0115 C.2     
   6 C6             3.5529     0.8980     0.5672 C.2     
   7 O7             4.1692     0.0006     1.1093 O.2     
   8 N8             4.2176     1.9085    -0.0273 N.am    
   9 C9             1.7161    -1.3347     1.8764 C.3     
  10 F10            0.6124    -2.1296     2.2039 F       
  11 F11            2.5904    -2.0631     1.0626 F       
  12 F12            2.3788    -0.9518     3.0474 F       
  13 C13           -1.2182     2.1445    -0.2353 C.3     
  14 C14            6.2682     3.2002    -0.0632 C.ar    
  15 C15            5.6111     1.9694     0.0505 C.ar    
  16 C16            6.3491     0.8107     0.2412 C.ar    
  17 C17            7.7274     0.8731     0.3189 C.ar    
  18 C18            8.3790     2.0885     0.2068 C.ar    
  19 C19            7.6575     3.2501     0.0163 C.ar    
  20 C20            5.4889     4.4442    -0.2732 C.ar    
  21 C21            4.6164     4.9000     0.7166 C.ar    
  22 C22            3.8926     6.0601     0.5154 C.ar    
  23 C23            4.0310     6.7688    -0.6641 C.ar    
  24 C24            4.8953     6.3213    -1.6498 C.ar    
  25 C25            5.6290     5.1656    -1.4568 C.ar    
  26 F26            5.0256     7.0186    -2.7996 F       
  27 F27            4.4795     4.2082     1.8689 F       
  28 H28            1.5636     2.7150    -0.5378 H       
  29 H29            3.7283     2.5936    -0.5093 H       
  30 H30           -1.5308     2.8465     0.5377 H       
  31 H31           -1.0016     2.6889    -1.1545 H       
  32 H32           -2.0172     1.4260    -0.4183 H       
  33 H33            5.8462    -0.1410     0.3294 H       
  34 H34            8.2987    -0.0312     0.4681 H       
  35 H35            9.4565     2.1288     0.2689 H       
  36 H36            8.1702     4.1966    -0.0710 H       
  37 H37            3.2173     6.4136     1.2805 H       
  38 H38            3.4629     7.6744    -0.8174 H       
  39 H39            6.3061     4.8201    -2.2240 H       
@<TRIPOS>BOND
   1    1    2 1
   2    1    5 1
   3    1   13 1
   4    2    3 2
   5    3    4 1
   6    3    9 1
   7    4    5 2
   8    4    6 1
   9    5   28 1
  10    6    7 2
  11    6    8 am
  12    8   15 1
  13    8   29 1
  14    9   10 1
  15    9   11 1
  16    9   12 1
  17   13   30 1
  18   13   31 1
  19   13   32 1
  20   14   15 ar
  21   14   19 ar
  22   14   20 1
  23   15   16 ar
  24   16   17 ar
  25   16   33 1
  26   17   18 ar
  27   17   34 1
  28   18   19 ar
  29   18   35 1
  30   19   36 1
  31   20   21 ar
  32   20   25 ar
  33   21   22 ar
  34   21   27 1
  35   22   23 ar
  36   22   37 1
  37   23   24 ar
  38   23   38 1
  39   24   25 ar
  40   24   26 1
  41   25   39 1

#	End of record

