#	Name: ASD02198197
#	Creating user name:	WinNT
#	Creation time:	15. 06. 2019 20:19

#	Modifying user name:	WinNT
#	Modification time:	15. 06. 2019 20:19

#	Program:	/corina/corina34_cracker 3.40 0067  02.08.2006

@<TRIPOS>MOLECULE
ASD02198197
  45   48    0    0    0
SMALL
NO_CHARGES


@<TRIPOS>ATOM
   1 C1            -0.0166     1.3753     0.0096 C.2     
   2 C2             0.0021    -0.0041     0.0020 C.2     
   3 C3            -1.1878    -0.8008     0.0083 C.1     
   4 S4             1.5675     2.0054    -0.0021 S.3     
   5 C5             2.2772     0.3990    -0.0175 C.2     
   6 C6             1.2824    -0.5520    -0.0132 C.2     
   7 C7             3.6579     0.1249    -0.0322 C.2     
   8 C8             4.6308     1.2351    -0.0350 C.2     
   9 O9             4.0505    -1.0301    -0.0426 O.2     
  10 N10            1.5294    -1.9154    -0.0224 N.pl3   
  11 N11           -1.1593     2.1393     0.0193 N.pl3   
  12 N12           -2.1317    -1.4328     0.0134 N.1     
  13 C13           -1.0630     3.6011     0.0268 C.3     
  14 O14            4.3523     2.5520    -0.0242 O.3     
  15 C15           -2.4477     4.1957     0.0368 C.ar    
  16 N16            5.3581     3.2224    -0.0300 N.2     
  17 C17            6.4373     2.4802    -0.0451 C.2     
  18 C18            5.9936     1.1303    -0.0430 C.2     
  19 C19            7.8438     2.9548    -0.0564 C.ar    
  20 C20            8.1210     4.3201    -0.0508 C.ar    
  21 C21            8.8914     2.0365    -0.0669 C.ar    
  22 C22           10.1973     2.4832    -0.0769 C.ar    
  23 C23           10.4668     3.8399    -0.0766 C.ar    
  24 C24            9.4306     4.7559    -0.0609 C.ar    
  25 C25           -3.0770     4.4618     1.2385 C.ar    
  26 C26           -3.0864     4.4801    -1.1557 C.ar    
  27 C27           -4.3566     5.0255    -1.1466 C.ar    
  28 C28           -4.9883     5.2860     0.0551 C.ar    
  29 C29           -4.3472     5.0072     1.2476 C.ar    
  30 H30            2.4424    -2.2428    -0.0326 H       
  31 H31            0.7893    -2.5424    -0.0187 H       
  32 H32           -2.0294     1.7105     0.0212 H       
  33 H33           -0.5221     3.9251     0.9159 H       
  34 H34           -0.5308     3.9347    -0.8640 H       
  35 H35            6.5928     0.2319    -0.0520 H       
  36 H36            7.3126     5.0362    -0.0389 H       
  37 H37            8.6821     0.9770    -0.0668 H       
  38 H38           11.0102     1.7721    -0.0847 H       
  39 H39           11.4901     4.1852    -0.0841 H       
  40 H40            9.6465     5.8141    -0.0611 H       
  41 H41           -2.5764     4.2434     2.1702 H       
  42 H42           -2.5929     4.2765    -2.0946 H       
  43 H43           -4.8553     5.2484    -2.0783 H       
  44 H44           -5.9805     5.7124     0.0622 H       
  45 H45           -4.8407     5.2107     2.1865 H       
@<TRIPOS>BOND
   1    1    2 2
   2    1    4 1
   3    1   11 1
   4    2    3 1
   5    2    6 1
   6    3   12 3
   7    4    5 1
   8    5    6 2
   9    5    7 1
  10    6   10 1
  11    7    8 1
  12    7    9 2
  13    8   14 1
  14    8   18 2
  15   10   30 1
  16   10   31 1
  17   11   13 1
  18   11   32 1
  19   13   15 1
  20   13   33 1
  21   13   34 1
  22   14   16 1
  23   15   25 ar
  24   15   26 ar
  25   16   17 2
  26   17   18 1
  27   17   19 1
  28   18   35 1
  29   19   20 ar
  30   19   21 ar
  31   20   24 ar
  32   20   36 1
  33   21   22 ar
  34   21   37 1
  35   22   23 ar
  36   22   38 1
  37   23   24 ar
  38   23   39 1
  39   24   40 1
  40   25   29 ar
  41   25   41 1
  42   26   27 ar
  43   26   42 1
  44   27   28 ar
  45   27   43 1
  46   28   29 ar
  47   28   44 1
  48   29   45 1

#	End of record

