#	Name: ASD01209272
#	Creating user name:	WinNT
#	Creation time:	15. 06. 2019 19:11

#	Modifying user name:	WinNT
#	Modification time:	15. 06. 2019 19:11

#	Program:	/corina/corina34_cracker 3.40 0067  02.08.2006

@<TRIPOS>MOLECULE
ASD01209272
  73   75    0    0    0
SMALL
NO_CHARGES


@<TRIPOS>ATOM
   1 C1             0.0014     1.3908    -0.0963 C.ar    
   2 C2             0.0517    -0.0034    -0.0656 C.ar    
   3 C3            -1.1220    -0.7352     0.0074 C.ar    
   4 C4             1.2516     2.1760    -0.1741 C.2     
   5 O5             1.2059     3.3905    -0.2008 O.2     
   6 N6             2.4420     1.5454    -0.2154 N.am    
   7 C7             3.6241     2.2879    -0.2890 C.2     
   8 P8             7.7078     2.7572    -2.2139 P.3     
   9 O9             7.0400     1.6218    -2.8887 O.2     
  10 O10            9.3042     2.5609    -2.2863 O.3     
  11 C11           10.0098     2.3689    -3.5140 C.3     
  12 C12           11.5045     2.2165    -3.2246 C.3     
  13 O13            7.3023     4.1316    -2.9480 O.3     
  14 C14            7.4856     4.3494    -4.3484 C.3     
  15 C15            6.9976     5.7526    -4.7144 C.3     
  16 N16            4.8370     1.7903    -0.3346 N.2     
  17 N17            5.7197     2.8805    -0.4022 N.pl3   
  18 C18            4.9587     3.9879    -0.3925 C.2     
  19 N19            3.7041     3.6214    -0.3303 N.2     
  20 C20           -1.2321     2.0414    -0.0592 C.ar    
  21 C21           -2.4015     1.3017     0.0080 C.ar    
  22 C22           -2.3467    -0.0837     0.0495 C.ar    
  23 O23           -3.6037     1.9346     0.0442 O.3     
  24 C24           -4.7714     1.1128    -0.0115 C.3     
  25 C25           -5.9399     1.9245    -0.5741 C.3     
  26 O26           -6.2646     2.9820     0.3305 O.3     
  27 C27           -7.3493     3.8052    -0.1029 C.3     
  28 C28           -5.1199     0.6257     1.3964 C.3     
  29 O29           -1.0744    -2.0930     0.0374 O.3     
  30 C30           -0.5375    -2.6884     1.1346 C.ar    
  31 C31           -0.1741    -1.9226     2.2331 C.ar    
  32 C32            0.3710    -2.5304     3.3474 C.ar    
  33 C33            0.5545    -3.9007     3.3687 C.ar    
  34 C34            0.1932    -4.6661     2.2753 C.ar    
  35 C35           -0.3572    -4.0639     1.1606 C.ar    
  36 S36            1.2506    -4.6728     4.7914 S.o2    
  37 O37            1.8512    -5.8582     4.2882 O.2     
  38 O38            2.0352    -3.6532     5.3948 O.2     
  39 C39           -0.1790    -5.0760     5.8326 C.3     
  40 C40            7.1820     2.8219    -0.4696 C.3     
  41 H41            1.0043    -0.5111    -0.0990 H       
  42 H42            2.4785     0.5764    -0.1942 H       
  43 H43            9.6418     1.4695    -4.0078 H       
  44 H44            9.8513     3.2303    -4.1627 H       
  45 H45           11.6630     1.3551    -2.5759 H       
  46 H46           12.0428     2.0700    -4.1611 H       
  47 H47           11.8725     3.1158    -2.7308 H       
  48 H48            8.5432     4.2567    -4.5951 H       
  49 H49            6.9154     3.6087    -4.9090 H       
  50 H50            5.9400     5.8453    -4.4676 H       
  51 H51            7.5679     6.4933    -4.1538 H       
  52 H52            7.1374     5.9187    -5.7825 H       
  53 H53            5.3199     5.0049    -0.4337 H       
  54 H54           -1.2754     3.1203    -0.0824 H       
  55 H55           -3.2603    -0.6574     0.1014 H       
  56 H56           -4.5814     0.2547    -0.6562 H       
  57 H57           -5.6584     2.3457    -1.5393 H       
  58 H58           -6.8063     1.2751    -0.6999 H       
  59 H59           -7.0970     4.2653    -1.0582 H       
  60 H60           -8.2449     3.1948    -0.2188 H       
  61 H61           -7.5334     4.5834     0.6379 H       
  62 H62           -6.0106    -0.0011     1.3539 H       
  63 H63           -4.2874     0.0474     1.7972 H       
  64 H64           -5.3099     1.4839     2.0411 H       
  65 H65           -0.3169    -0.8522     2.2168 H       
  66 H66            0.6544    -1.9347     4.2025 H       
  67 H67            0.3379    -5.7362     2.2944 H       
  68 H68           -0.6392    -4.6622     0.3068 H       
  69 H69           -0.8455    -5.7469     5.2906 H       
  70 H70            0.1625    -5.5629     6.7460 H       
  71 H71           -0.7131    -4.1604     6.0868 H       
  72 H72            7.5342     1.9305     0.0493 H       
  73 H73            7.6033     3.7085     0.0043 H       
@<TRIPOS>BOND
   1    1    2 ar
   2    1    4 1
   3    1   20 ar
   4    2    3 ar
   5    2   41 1
   6    3   29 1
   7    3   22 ar
   8    4    5 2
   9    4    6 am
  10    6    7 1
  11    6   42 1
  12    7   16 2
  13    7   19 1
  14    8    9 2
  15    8   10 1
  16    8   13 1
  17    8   40 1
  18   10   11 1
  19   11   12 1
  20   11   43 1
  21   11   44 1
  22   12   45 1
  23   12   46 1
  24   12   47 1
  25   13   14 1
  26   14   15 1
  27   14   48 1
  28   14   49 1
  29   15   50 1
  30   15   51 1
  31   15   52 1
  32   16   17 1
  33   17   18 1
  34   17   40 1
  35   18   19 2
  36   18   53 1
  37   20   21 ar
  38   20   54 1
  39   21   22 ar
  40   21   23 1
  41   22   55 1
  42   23   24 1
  43   24   25 1
  44   24   28 1
  45   24   56 1
  46   25   26 1
  47   25   57 1
  48   25   58 1
  49   26   27 1
  50   27   59 1
  51   27   60 1
  52   27   61 1
  53   28   62 1
  54   28   63 1
  55   28   64 1
  56   29   30 1
  57   30   31 ar
  58   30   35 ar
  59   31   32 ar
  60   31   65 1
  61   32   33 ar
  62   32   66 1
  63   33   34 ar
  64   33   36 1
  65   34   35 ar
  66   34   67 1
  67   35   68 1
  68   36   37 2
  69   36   38 2
  70   36   39 1
  71   39   69 1
  72   39   70 1
  73   39   71 1
  74   40   72 1
  75   40   73 1

#	End of record

