#	Name: ASD01914801
#	Creating user name:	WinNT
#	Creation time:	15. 06. 2019 20:04

#	Modifying user name:	WinNT
#	Modification time:	15. 06. 2019 20:04

#	Program:	/corina/corina34_cracker 3.40 0067  02.08.2006

@<TRIPOS>MOLECULE
ASD01914801
  42   43    0    0    0
SMALL
NO_CHARGES


@<TRIPOS>ATOM
   1 N1            -0.0289     1.3820    -0.0693 N.am    
   2 N2             0.0418    -0.0031    -0.2644 N.2     
   3 C3             1.2960    -0.3773    -0.1265 C.2     
   4 C4             2.0656     0.7647     0.1621 C.2     
   5 C5             1.2262     1.8347     0.1917 C.2     
   6 S6            -1.3999     2.3073    -0.1496 S.o2    
   7 O7            -1.9652     2.3010     1.1541 O.2     
   8 O8            -1.0402     3.4990    -0.8350 O.2     
   9 N9            -2.4724     1.5106    -1.1281 N.am    
  10 C10           -3.4163     0.5501    -0.5513 C.3     
  11 C11           -2.4772     1.7663    -2.5706 C.3     
  12 C12            3.1457    -2.0517     0.0178 C.ar    
  13 C13            1.8096    -1.7641    -0.2531 C.ar    
  14 C14            0.9610    -2.8023    -0.6453 C.ar    
  15 C15            1.4884    -4.0784    -0.7480 C.ar    
  16 C16            2.8257    -4.2825    -0.4618 C.ar    
  17 N17            3.6025    -3.2821    -0.0933 N.ar    
  18 S18            1.6832     3.5062     0.5108 S.3     
  19 C19            3.4880     3.4772     0.3309 C.3     
  20 C20            4.0354     4.9010     0.4504 C.3     
  21 C21            5.5576     4.8766     0.2986 C.3     
  22 C22            6.1050     6.3003     0.4182 C.3     
  23 H23            3.1322     0.7876     0.3301 H       
  24 H24           -4.3348     1.0663    -0.2722 H       
  25 H25           -3.6426    -0.2228    -1.2858 H       
  26 H26           -2.9736     0.0923     0.3333 H       
  27 H27           -1.7119     2.5042    -2.8114 H       
  28 H28           -2.2689     0.8392    -3.1047 H       
  29 H29           -3.4545     2.1458    -2.8691 H       
  30 H30            3.8137    -1.2578     0.3176 H       
  31 H31           -0.0801    -2.6144    -0.8625 H       
  32 H32            0.8620    -4.9054    -1.0481 H       
  33 H33            3.2405    -5.2765    -0.5409 H       
  34 H34            3.9213     2.8545     1.1136 H       
  35 H35            3.7493     3.0683    -0.6451 H       
  36 H36            3.6021     5.5237    -0.3323 H       
  37 H37            3.7741     5.3099     1.4264 H       
  38 H38            5.9909     4.2538     1.0813 H       
  39 H39            5.8189     4.4676    -0.6774 H       
  40 H40            5.6717     6.9230    -0.3645 H       
  41 H41            5.8437     6.7093     1.3941 H       
  42 H42            7.1895     6.2829     0.3100 H       
@<TRIPOS>BOND
   1    1    2 1
   2    1    5 1
   3    1    6 am
   4    2    3 2
   5    3    4 1
   6    3   13 1
   7    4    5 2
   8    4   23 1
   9    5   18 1
  10    6    7 2
  11    6    8 2
  12    6    9 am
  13    9   10 1
  14    9   11 1
  15   10   24 1
  16   10   25 1
  17   10   26 1
  18   11   27 1
  19   11   28 1
  20   11   29 1
  21   12   13 ar
  22   12   17 ar
  23   12   30 1
  24   13   14 ar
  25   14   15 ar
  26   14   31 1
  27   15   16 ar
  28   15   32 1
  29   16   17 ar
  30   16   33 1
  31   18   19 1
  32   19   20 1
  33   19   34 1
  34   19   35 1
  35   20   21 1
  36   20   36 1
  37   20   37 1
  38   21   22 1
  39   21   38 1
  40   21   39 1
  41   22   40 1
  42   22   41 1
  43   22   42 1

#	End of record

