#	Name: ASD00311063
#	Creating user name:	WinNT
#	Creation time:	15. 06. 2019 18:34

#	Modifying user name:	WinNT
#	Modification time:	15. 06. 2019 18:34

#	Program:	/corina/corina34_cracker 3.40 0067  02.08.2006

@<TRIPOS>MOLECULE
ASD00311063
  43   46    0    0    0
SMALL
NO_CHARGES


@<TRIPOS>ATOM
   1 C1            -0.0180     1.4744     0.0101 C.2     
   2 C2             0.0021    -0.0041     0.0020 C.ar    
   3 C3             1.2174    -0.6862    -0.0133 C.ar    
   4 C4             1.2275    -2.0780    -0.0203 C.ar    
   5 C5             0.0224    -2.7819    -0.0121 C.ar    
   6 C6            -1.1788    -2.1010     0.0030 C.ar    
   7 C7            -1.1964    -0.7203     0.0155 C.ar    
   8 O8             1.0263     2.0965     0.0035 O.2     
   9 N9            -1.1942     2.1324     0.0193 N.am    
  10 C10            4.1889    -4.2377     0.8218 C.2     
  11 C11            2.9582    -3.6597     1.0677 C.2     
  12 C12            2.2986    -3.9397     2.2997 C.2     
  13 C13            2.9039    -4.7833     3.2223 C.2     
  14 C14            4.1606    -5.3476     2.9227 C.2     
  15 N15            4.7658    -5.0722     1.7571 N.am    
  16 C16            2.5153    -2.8110    -0.0371 C.2     
  17 C17            3.3659    -2.7524    -1.0602 C.2     
  18 S18            4.7884    -3.7292    -0.7536 S.3     
  19 O19            4.7005    -6.0896     3.7270 O.2     
  20 C20            2.2356    -5.0868     4.5088 C.ar    
  21 C21            1.8157    -6.3868     4.7901 C.ar    
  22 C22            1.1941    -6.6634     5.9905 C.ar    
  23 C23            0.9870    -5.6544     6.9141 C.ar    
  24 C24            1.4008    -4.3629     6.6406 C.ar    
  25 C25            2.0287    -4.0750     5.4462 C.ar    
  26 O26            1.0925    -3.3876     2.5687 O.3     
  27 Cl27           3.1033    -1.8256    -2.5044 Cl      
  28 C28           -1.2141     3.5972     0.0274 C.3     
  29 H29            2.1474    -0.1371    -0.0199 H       
  30 H30            0.0294    -3.8619    -0.0180 H       
  31 H31           -2.1084    -2.6507     0.0093 H       
  32 H32           -2.1391    -0.1935     0.0314 H       
  33 H33           -2.0276     1.6360     0.0206 H       
  34 H34            5.6302    -5.4694     1.5674 H       
  35 H35            1.9765    -7.1752     4.0697 H       
  36 H36            0.8683    -7.6695     6.2094 H       
  37 H37            0.5001    -5.8758     7.8523 H       
  38 H38            1.2361    -3.5794     7.3654 H       
  39 H39            2.3556    -3.0674     5.2358 H       
  40 H40            0.7281    -3.6384     3.4286 H       
  41 H41           -0.7010     3.9627     0.9169 H       
  42 H42           -0.7094     3.9723    -0.8630 H       
  43 H43           -2.2466     3.9466     0.0342 H       
@<TRIPOS>BOND
   1    1    2 1
   2    1    8 2
   3    1    9 am
   4    2    3 ar
   5    2    7 ar
   6    3    4 ar
   7    3   29 1
   8    4    5 ar
   9    4   16 1
  10    5    6 ar
  11    5   30 1
  12    6    7 ar
  13    6   31 1
  14    7   32 1
  15    9   28 1
  16    9   33 1
  17   10   11 2
  18   10   15 1
  19   10   18 1
  20   11   12 1
  21   11   16 1
  22   12   13 2
  23   12   26 1
  24   13   14 1
  25   13   20 1
  26   14   15 am
  27   14   19 2
  28   15   34 1
  29   16   17 2
  30   17   18 1
  31   17   27 1
  32   20   21 ar
  33   20   25 ar
  34   21   22 ar
  35   21   35 1
  36   22   23 ar
  37   22   36 1
  38   23   24 ar
  39   23   37 1
  40   24   25 ar
  41   24   38 1
  42   25   39 1
  43   26   40 1
  44   28   41 1
  45   28   42 1
  46   28   43 1

#	End of record

