#	Name: ASD00310292
#	Creating user name:	WinNT
#	Creation time:	15. 06. 2019 18:34

#	Modifying user name:	WinNT
#	Modification time:	15. 06. 2019 18:34

#	Program:	/corina/corina34_cracker 3.40 0067  02.08.2006

@<TRIPOS>MOLECULE
ASD00310292
  27   28    0    0    0
SMALL
NO_CHARGES


@<TRIPOS>ATOM
   1 C1            -0.0188     1.5336     0.0105 C.3     
   2 C2             0.0021    -0.0041     0.0020 C.3     
   3 C3             1.3815     0.0967    -0.6702 C.3     
   4 C4             1.5179     1.4762    -0.0045 C.3     
   5 O5            -0.5818     2.1049    -1.1721 O.3     
   6 C6            -0.5886     2.1226     1.2751 C.ar    
   7 C7            -1.2403     3.3406     1.2367 C.ar    
   8 C8            -1.7649     3.8822     2.4005 C.ar    
   9 C9            -1.6338     3.1988     3.6018 C.ar    
  10 C10           -0.9812     1.9812     3.6347 C.ar    
  11 C11           -0.4637     1.4413     2.4715 C.ar    
  12 O12           -2.4059     5.0802     2.3652 O.3     
  13 C13           -2.5029     5.7269     1.0946 C.3     
  14 Br14          -2.3471     3.9337     5.1916 Br      
  15 H15            0.0329    -0.4458     0.9980 H       
  16 H16           -0.7629    -0.4476    -0.6353 H       
  17 H17            2.0998    -0.6373    -0.3050 H       
  18 H18            1.3349     0.1396    -1.7584 H       
  19 H19            1.9766     2.2276    -0.6471 H       
  20 H20            1.9632     1.4391     0.9897 H       
  21 H21           -0.5977     3.0718    -1.1727 H       
  22 H22           -1.3406     3.8704     0.3009 H       
  23 H23           -0.8788     1.4489     4.5688 H       
  24 H24            0.0421     0.4875     2.4983 H       
  25 H25           -3.0359     6.6710     1.2071 H       
  26 H26           -1.5022     5.9186     0.7072 H       
  27 H27           -3.0444     5.0845     0.4003 H       
@<TRIPOS>BOND
   1    1    2 1
   2    1    4 1
   3    1    5 1
   4    1    6 1
   5    2    3 1
   6    2   15 1
   7    2   16 1
   8    3    4 1
   9    3   17 1
  10    3   18 1
  11    4   19 1
  12    4   20 1
  13    5   21 1
  14    6    7 ar
  15    6   11 ar
  16    7    8 ar
  17    7   22 1
  18    8    9 ar
  19    8   12 1
  20    9   10 ar
  21    9   14 1
  22   10   11 ar
  23   10   23 1
  24   11   24 1
  25   12   13 1
  26   13   25 1
  27   13   26 1
  28   13   27 1

#	End of record

