#	Name: ASD04590377
#	Creating user name:	WinNT
#	Creation time:	15. 06. 2019 20:50

#	Modifying user name:	WinNT
#	Modification time:	15. 06. 2019 20:50

#	Program:	/corina/corina34_cracker 3.40 0067  02.08.2006

@<TRIPOS>MOLECULE
ASD04590377
  36   39    0    0    0
SMALL
NO_CHARGES


@<TRIPOS>ATOM
   1 C1            -0.0168     1.3855     0.0097 C.ar    
   2 C2             0.0021    -0.0041     0.0020 C.ar    
   3 C3            -2.4009    -0.0402     0.0248 C.ar    
   4 C4            -2.4129     1.3647     0.0440 C.ar    
   5 C5            -1.2164     2.0686     0.0305 C.ar    
   6 N6            -3.6928    -0.4531     0.0440 N.2     
   7 C7            -4.4874     0.5886     0.0734 C.2     
   8 N8            -3.7429     1.7388     0.0747 N.pl3   
   9 C9            -5.9636     0.5314     0.1011 C.2     
  10 C10           -6.7501    -0.6437     0.1008 C.2     
  11 C11           -8.0525    -0.2694     0.1307 C.2     
  12 N12           -8.0952     1.0888     0.1493 N.pl3   
  13 N13           -6.7790     1.5671     0.1361 N.2     
  14 N14           -6.2681    -1.9625     0.0743 N.am    
  15 C15           -7.1329    -2.9963     0.0773 C.2     
  16 O16           -8.3306    -2.7870     0.1031 O.2     
  17 C17           -6.6266    -4.3816     0.0494 C.ar    
  18 C18           -6.4084    -5.0265    -1.1728 C.ar    
  19 C19           -5.9334    -6.3243    -1.1897 C.ar    
  20 C20           -5.6739    -6.9855    -0.0030 C.ar    
  21 C21           -5.8872    -6.3558     1.2098 C.ar    
  22 C22           -6.3564    -5.0561     1.2451 C.ar    
  23 F23           -6.6616    -4.3826    -2.3332 F       
  24 F24           -6.5641    -4.4428     2.4308 F       
  25 C25           -1.1757    -0.7189     0.0094 C.ar    
  26 F26           -1.1489    -2.0696     0.0015 F       
  27 F27            1.1465     2.0725     0.0022 F       
  28 H28            0.9467    -0.5274    -0.0102 H       
  29 H29           -1.2240     3.1486     0.0367 H       
  30 H30           -4.0854     2.6461     0.0942 H       
  31 H31           -8.9048    -0.9326     0.1381 H       
  32 H32           -8.8981     1.6327     0.1714 H       
  33 H33           -5.3128    -2.1294     0.0537 H       
  34 H34           -5.7647    -6.8238    -2.1324 H       
  35 H35           -5.3029    -7.9996    -0.0234 H       
  36 H36           -5.6824    -6.8795     2.1318 H       
@<TRIPOS>BOND
   1    1    2 ar
   2    1   27 1
   3    1    5 ar
   4    2   25 ar
   5    2   28 1
   6    3    4 ar
   7    3    6 1
   8    3   25 ar
   9    4    5 ar
  10    4    8 1
  11    5   29 1
  12    6    7 2
  13    7    8 1
  14    7    9 1
  15    8   30 1
  16    9   10 1
  17    9   13 2
  18   10   11 2
  19   10   14 1
  20   11   12 1
  21   11   31 1
  22   12   13 1
  23   12   32 1
  24   14   15 am
  25   14   33 1
  26   15   16 2
  27   15   17 1
  28   17   18 ar
  29   17   22 ar
  30   18   19 ar
  31   18   23 1
  32   19   20 ar
  33   19   34 1
  34   20   21 ar
  35   20   35 1
  36   21   22 ar
  37   21   36 1
  38   22   24 1
  39   25   26 1

#	End of record

