#	Name: ASD03091044
#	Creating user name:	WinNT
#	Creation time:	15. 06. 2019 20:29

#	Modifying user name:	WinNT
#	Modification time:	15. 06. 2019 20:29

#	Program:	/corina/corina34_cracker 3.40 0067  02.08.2006

@<TRIPOS>MOLECULE
ASD03091044
  30   30    0    0    0
SMALL
NO_CHARGES


@<TRIPOS>ATOM
   1 C1             0.4278     1.4331    -0.2709 C.2     
   2 C2             0.2183    -0.0241    -0.1343 C.ar    
   3 C3             0.7087    -0.7007     0.9839 C.ar    
   4 C4             0.5107    -2.0603     1.1065 C.ar    
   5 C5            -0.1726    -2.7549     0.1244 C.ar    
   6 C6            -0.6625    -2.0905    -0.9884 C.ar    
   7 C7            -0.4753    -0.7274    -1.1197 C.ar    
   8 O8             1.5543     1.8893    -0.2552 O.2     
   9 N9            -0.6301     2.2551    -0.4185 N.am    
  10 N10            1.4406     0.0396     2.0361 N.pl3   
  11 O11            1.9806    -0.5670     2.9439 O.2     
  12 O12            1.5028     1.2553     1.9942 O.2     
  13 C13           -0.4226     3.6990    -0.5539 C.3     
  14 C14           -1.7757     4.3966    -0.7064 C.3     
  15 C15           -1.5690     5.9125    -0.7226 C.3     
  16 C16           -2.4311     3.9573    -2.0172 C.3     
  17 F17           -1.3288    -2.7751    -1.9436 F       
  18 H18            0.8903    -2.5840     1.9714 H       
  19 H19           -0.3246    -3.8194     0.2254 H       
  20 H20           -0.8610    -0.2089    -1.9850 H       
  21 H21           -1.5289     1.8906    -0.4351 H       
  22 H22            0.0837     4.0781     0.3339 H       
  23 H23            0.1896     3.8972    -1.4337 H       
  24 H24           -2.4200     4.1267     0.1303 H       
  25 H25           -0.9246     6.1824    -1.5593 H       
  26 H26           -2.5329     6.4095    -0.8313 H       
  27 H27           -1.1020     6.2255     0.2112 H       
  28 H28           -2.5784     2.8773    -2.0057 H       
  29 H29           -3.3951     4.4543    -2.1259 H       
  30 H30           -1.7868     4.2272    -2.8540 H       
@<TRIPOS>BOND
   1    1    2 1
   2    1    8 2
   3    1    9 am
   4    2    3 ar
   5    2    7 ar
   6    3    4 ar
   7    3   10 1
   8    4    5 ar
   9    4   18 1
  10    5    6 ar
  11    5   19 1
  12    6    7 ar
  13    6   17 1
  14    7   20 1
  15    9   13 1
  16    9   21 1
  17   10   11 2
  18   10   12 2
  19   13   14 1
  20   13   22 1
  21   13   23 1
  22   14   15 1
  23   14   16 1
  24   14   24 1
  25   15   25 1
  26   15   26 1
  27   15   27 1
  28   16   28 1
  29   16   29 1
  30   16   30 1

#	End of record

