#	Name: ASD01948066
#	Creating user name:	WinNT
#	Creation time:	15. 06. 2019 20:13

#	Modifying user name:	WinNT
#	Modification time:	15. 06. 2019 20:13

#	Program:	/corina/corina34_cracker 3.40 0067  02.08.2006

@<TRIPOS>MOLECULE
ASD01948066
  47   47    0    0    0
SMALL
NO_CHARGES


@<TRIPOS>ATOM
   1 C1            -0.3092     1.3969     0.0010 C.2     
   2 C2            -0.3940    -0.0672     0.1641 C.2     
   3 C3            -1.6868    -0.6996     0.4899 C.2     
   4 O4             0.7552     1.9176    -0.2672 O.2     
   5 O5            -1.4132     2.1557     0.1441 O.3     
   6 O6            -1.7566    -1.9050     0.6242 O.2     
   7 O7            -2.7897     0.0598     0.6385 O.3     
   8 C8             0.7098    -0.8271     0.0155 C.2     
   9 C9             1.0425    -2.3020     0.0948 C.3     
  10 C10            2.4786    -1.8876     0.4517 C.3     
  11 C11            2.1684    -0.5871    -0.3119 C.3     
  12 S12            2.7534    -1.6536     2.2294 S.o2    
  13 O13            4.1358    -1.4666     2.5000 O.2     
  14 O14            1.7753    -0.7785     2.7742 O.2     
  15 O15            2.4302    -3.0075     2.8451 O.3     
  16 C16            3.4311    -4.0022     2.6199 C.3     
  17 C17            2.9451    -5.3471     3.1640 C.3     
  18 C18            4.0168    -6.4121     2.9228 C.3     
  19 C19            3.5308    -7.7570     3.4670 C.3     
  20 C20           -1.2555     3.5885    -0.0304 C.3     
  21 C21           -2.6066     4.2783     0.1686 C.3     
  22 C22           -4.0266    -0.6299     0.9587 C.3     
  23 C23           -5.1603     0.3894     1.0875 C.3     
  24 H24            0.5260    -2.8224     0.9013 H       
  25 H25            0.9631    -2.8187    -0.8617 H       
  26 H26            3.2446    -2.5015    -0.0221 H       
  27 H27            2.3909    -0.6439    -1.3774 H       
  28 H28            2.5796     0.3055     0.1596 H       
  29 H29            3.6214    -4.0905     1.5502 H       
  30 H30            4.3505    -3.7147     3.1299 H       
  31 H31            2.7549    -5.2588     4.2337 H       
  32 H32            2.0258    -5.6346     2.6539 H       
  33 H33            4.2071    -6.5004     1.8532 H       
  34 H34            4.9361    -6.1246     3.4329 H       
  35 H35            2.6115    -8.0445     2.9569 H       
  36 H36            4.2943    -8.5157     3.2952 H       
  37 H37            3.3405    -7.6687     4.5366 H       
  38 H38           -0.5427     3.9674     0.7021 H       
  39 H39           -0.8873     3.7938    -1.0355 H       
  40 H40           -3.3193     3.8994    -0.5639 H       
  41 H41           -2.9748     4.0730     1.1738 H       
  42 H42           -2.4882     5.3539     0.0376 H       
  43 H43           -4.2636    -1.3384     0.1649 H       
  44 H44           -3.9107    -1.1654     1.9009 H       
  45 H45           -4.9234     1.0979     1.8813 H       
  46 H46           -5.2763     0.9249     0.1453 H       
  47 H47           -6.0889    -0.1283     1.3279 H       
@<TRIPOS>BOND
   1    1    2 1
   2    1    4 2
   3    1    5 1
   4    2    3 1
   5    2    8 2
   6    3    6 2
   7    3    7 1
   8    5   20 1
   9    7   22 1
  10    8    9 1
  11    8   11 1
  12    9   10 1
  13    9   24 1
  14    9   25 1
  15   10   11 1
  16   10   12 1
  17   10   26 1
  18   11   27 1
  19   11   28 1
  20   12   13 2
  21   12   14 2
  22   12   15 1
  23   15   16 1
  24   16   17 1
  25   16   29 1
  26   16   30 1
  27   17   18 1
  28   17   31 1
  29   17   32 1
  30   18   19 1
  31   18   33 1
  32   18   34 1
  33   19   35 1
  34   19   36 1
  35   19   37 1
  36   20   21 1
  37   20   38 1
  38   20   39 1
  39   21   40 1
  40   21   41 1
  41   21   42 1
  42   22   23 1
  43   22   43 1
  44   22   44 1
  45   23   45 1
  46   23   46 1
  47   23   47 1

#	End of record

