#	Name: ASD03082151
#	Creating user name:	WinNT
#	Creation time:	15. 06. 2019 20:27

#	Modifying user name:	WinNT
#	Modification time:	15. 06. 2019 20:27

#	Program:	/corina/corina34_cracker 3.40 0067  02.08.2006

@<TRIPOS>MOLECULE
ASD03082151
  45   48    0    0    0
SMALL
NO_CHARGES


@<TRIPOS>ATOM
   1 C1            -0.0239     0.5241     1.5217 C.ar    
   2 C2            -0.0304    -0.2181     0.3480 C.ar    
   3 C3             1.1574    -0.4410    -0.3370 C.ar    
   4 C4             2.3416     0.0758     0.1503 C.ar    
   5 C5             2.3457     0.8158     1.3210 C.ar    
   6 C6             1.1631     1.0391     2.0054 C.ar    
   7 N7            -1.2311    -0.7410    -0.1434 N.pl3   
   8 H8            -1.2314    -1.5797    -0.6307 H       
   9 C9            -2.4282    -0.0561     0.0673 C.2     
  10 N10           -3.6323    -0.4617    -0.3396 N.2     
  11 N11           -2.5489     1.0870     0.7025 N.2     
  12 N12           -3.9127     1.4220     0.6886 N.pl3   
  13 C13           -4.5448     0.4169     0.0231 C.2     
  14 C14           -5.9971     0.3274    -0.2459 C.ar    
  15 C15           -4.5025     2.5565     1.2487 C.2     
  16 C16           -6.7516     1.4777    -0.5104 C.ar    
  17 C17           -8.1021     1.3534    -0.7562 C.ar    
  18 N18           -8.6891     0.1713    -0.7454 N.ar    
  19 C19           -8.0163    -0.9430    -0.5004 C.ar    
  20 C20           -6.6508    -0.9066    -0.2485 C.ar    
  21 N21           -8.6832    -2.1631    -0.5010 N.pl3   
  22 C22           -7.9468    -3.4004    -0.2309 C.3     
  23 N23           -5.7816     2.8001     1.3372 N.2     
  24 O24           -5.9667     3.8706     1.8768 O.3     
  25 C25           -4.7950     4.4300     2.1940 C.2     
  26 N26           -3.8563     3.6026     1.8048 N.2     
  27 C27           -4.5919     5.7586     2.8757 C.3     
  28 F28            3.5054     1.3204     1.7959 F       
  29 C29            3.6306    -0.1660    -0.5921 C.3     
  30 F30            3.3743    -0.9327    -1.7339 F       
  31 F31            4.1885     1.0602    -0.9693 F       
  32 F32            4.5254    -0.8500     0.2377 F       
  33 H33           -0.9468     0.7024     2.0535 H       
  34 H34            1.1547    -1.0182    -1.2497 H       
  35 H35            1.1686     1.6168     2.9179 H       
  36 H36           -6.2810     2.4497    -0.5212 H       
  37 H37           -8.6890     2.2368    -0.9604 H       
  38 H38           -6.1051    -1.8170    -0.0494 H       
  39 H39           -9.6359    -2.1949    -0.6802 H       
  40 H40           -7.1639    -3.5279    -0.9785 H       
  41 H41           -7.4971    -3.3466     0.7606 H       
  42 H42           -8.6315    -4.2474    -0.2738 H       
  43 H43           -5.5610     6.2136     3.0807 H       
  44 H44           -4.0556     5.6081     3.8126 H       
  45 H45           -4.0123     6.4151     2.2267 H       
@<TRIPOS>BOND
   1    1    2 ar
   2    1    6 ar
   3    1   33 1
   4    2    3 ar
   5    2    7 1
   6    3    4 ar
   7    3   34 1
   8    4    5 ar
   9    4   29 1
  10    5    6 ar
  11    5   28 1
  12    6   35 1
  13    7    8 1
  14    7    9 1
  15    9   10 1
  16    9   11 2
  17   10   13 2
  18   11   12 1
  19   12   13 1
  20   12   15 1
  21   13   14 1
  22   14   16 ar
  23   14   20 ar
  24   15   23 2
  25   15   26 1
  26   16   17 ar
  27   16   36 1
  28   17   18 ar
  29   17   37 1
  30   18   19 ar
  31   19   20 ar
  32   19   21 1
  33   20   38 1
  34   21   22 1
  35   21   39 1
  36   22   40 1
  37   22   41 1
  38   22   42 1
  39   23   24 1
  40   24   25 1
  41   25   26 2
  42   25   27 1
  43   27   43 1
  44   27   44 1
  45   27   45 1
  46   29   30 1
  47   29   31 1
  48   29   32 1

#	End of record

