#	Name: ASD07930639
#	Creating user name:	WinNT
#	Creation time:	15. 06. 2019 21:12

#	Modifying user name:	WinNT
#	Modification time:	15. 06. 2019 21:12

#	Program:	/corina/corina34_cracker 3.40 0067  02.08.2006

@<TRIPOS>MOLECULE
ASD07930639
  52   54    0    0    0
SMALL
NO_CHARGES


@<TRIPOS>ATOM
   1 C1            -0.0343     1.4581     0.0425 C.3     
   2 N2             0.7952    -0.4133    -2.1302 N.2     
   3 N3            -0.8904    -1.7835    -1.2685 N.pl3   
   4 C4            -0.9150    -2.8271    -0.2382 C.3     
   5 C5            -1.2300    -2.1885     1.1215 C.3     
   6 S6             0.0062    -0.8913     1.4435 S.o2    
   7 N7            -0.0141    -0.0067     0.0315 N.am    
   8 C8            -0.0113    -0.7260    -1.1551 C.2     
   9 C9             0.4500    -3.5153    -0.1755 C.3     
  10 C10           -1.9765    -3.8423    -0.5755 C.ar    
  11 C11           -2.8068    -3.6380    -1.6597 C.ar    
  12 C12           -3.7850    -4.5740    -1.9701 C.ar    
  13 C13           -3.9256    -5.7134    -1.1890 C.ar    
  14 C14           -3.0928    -5.9137    -0.1053 C.ar    
  15 C15           -2.1147    -4.9822     0.1989 C.ar    
  16 O16           -0.4576     0.0117     2.4378 O.2     
  17 O17            1.3140    -1.4440     1.5003 O.2     
  18 N18           -4.6279    -4.3688    -3.0682 N.am    
  19 C19           -5.0478    -5.4192    -3.8009 C.2     
  20 O20           -4.6183    -6.5329    -3.5689 O.2     
  21 C21           -6.0287    -5.2177    -4.8845 C.ar    
  22 C22           -6.4667    -6.3092    -5.6478 C.ar    
  23 F23           -1.3010    -5.1802     1.2590 F       
  24 N24           -7.3487    -6.1218    -6.6200 N.ar    
  25 C25           -7.8128    -4.9052    -6.8668 C.ar    
  26 C26           -7.3751    -3.8195    -6.1053 C.ar    
  27 N27           -6.5044    -3.9992    -5.1364 N.ar    
  28 O28           -8.7136    -4.7143    -7.8606 O.3     
  29 C29           -9.1177    -5.8682    -8.6003 C.3     
  30 O30           -5.9901    -7.5509    -5.3932 O.3     
  31 C31           -6.4813    -8.6147    -6.2112 C.3     
  32 H32            0.9882     1.8357     0.0394 H       
  33 H33           -0.5582     1.8209    -0.8418 H       
  34 H34           -0.5480     1.8077     0.9380 H       
  35 H35            1.4070     0.3332    -2.0331 H       
  36 H36           -1.4884    -1.8387    -2.0302 H       
  37 H37           -2.2270    -1.7485     1.0987 H       
  38 H38           -1.1799    -2.9460     1.9037 H       
  39 H39            1.2165    -2.7804     0.0704 H       
  40 H40            0.4311    -4.2908     0.5903 H       
  41 H41            0.6749    -3.9651    -1.1426 H       
  42 H42           -2.6960    -2.7510    -2.2657 H       
  43 H43           -4.6858    -6.4422    -1.4284 H       
  44 H44           -3.2019    -6.7998     0.5025 H       
  45 H45           -4.9099    -3.4706    -3.3020 H       
  46 H46           -7.7558    -2.8298    -6.3103 H       
  47 H47           -9.8393    -5.5763    -9.3633 H       
  48 H48           -8.2466    -6.3177    -9.0770 H       
  49 H49           -9.5756    -6.5909    -7.9248 H       
  50 H50           -6.2351    -8.4146    -7.2540 H       
  51 H51           -6.0203    -9.5530    -5.9026 H       
  52 H52           -7.5632    -8.6880    -6.1009 H       
@<TRIPOS>BOND
   1    1    7 1
   2    1   32 1
   3    1   33 1
   4    1   34 1
   5    2    8 2
   6    2   35 1
   7    3    4 1
   8    3    8 1
   9    3   36 1
  10    4    5 1
  11    4    9 1
  12    4   10 1
  13    5    6 1
  14    5   37 1
  15    5   38 1
  16    6    7 am
  17    6   16 2
  18    6   17 2
  19    7    8 1
  20    9   39 1
  21    9   40 1
  22    9   41 1
  23   10   11 ar
  24   10   15 ar
  25   11   12 ar
  26   11   42 1
  27   12   13 ar
  28   12   18 1
  29   13   14 ar
  30   13   43 1
  31   14   15 ar
  32   14   44 1
  33   15   23 1
  34   18   19 am
  35   18   45 1
  36   19   20 2
  37   19   21 1
  38   21   22 ar
  39   21   27 ar
  40   22   24 ar
  41   22   30 1
  42   24   25 ar
  43   25   26 ar
  44   25   28 1
  45   26   27 ar
  46   26   46 1
  47   28   29 1
  48   29   47 1
  49   29   48 1
  50   29   49 1
  51   30   31 1
  52   31   50 1
  53   31   51 1
  54   31   52 1

#	End of record

