#	Name: ASD00190061
#	Creating user name:	WinNT
#	Creation time:	15. 06. 2019 18:33

#	Modifying user name:	WinNT
#	Modification time:	15. 06. 2019 18:33

#	Program:	/corina/corina34_cracker 3.40 0067  02.08.2006

@<TRIPOS>MOLECULE
ASD00190061
  51   56    0    0    0
SMALL
NO_CHARGES


@<TRIPOS>ATOM
   1 C1            -0.0155     1.3889     0.0320 C.ar    
   2 C2             0.0025    -0.0011     0.0106 C.ar    
   3 C3             1.1801    -0.6877    -0.0109 C.ar    
   4 C4             2.3964     0.0123    -0.0119 C.ar    
   5 C5             2.3718     1.4268     0.0095 C.ar    
   6 C6             1.1496     2.1010     0.0316 C.ar    
   7 N7             3.5674    -0.6416    -0.0323 N.ar    
   8 C8             4.7274    -0.0213    -0.0336 C.ar    
   9 C9             4.8189     1.3797    -0.0130 C.ar    
  10 C10            3.6477     2.1441     0.0081 C.ar    
  11 N11            5.8586     2.2834    -0.0085 N.pl3   
  12 C12            5.3153     3.5208     0.0152 C.2     
  13 N13            4.0132     3.4343     0.0248 N.2     
  14 N14            5.8930    -0.7724    -0.0555 N.pl3   
  15 C15            5.8288    -2.1671     0.0438 C.ar    
  16 C16            6.7405    -2.9549    -0.6458 C.ar    
  17 C17            6.6766    -4.3349    -0.5468 C.ar    
  18 C18            5.6972    -4.9295     0.2450 C.ar    
  19 C19            4.7887    -4.1398     0.9311 C.ar    
  20 C20            4.8567    -2.7629     0.8366 C.ar    
  21 C21            6.0971     4.8091     0.0279 C.3     
  22 C22            6.4820     5.1580     1.4670 C.3     
  23 C23            7.2757     6.4659     1.4799 C.3     
  24 C24            8.5431     6.3017     0.6386 C.3     
  25 C25            8.1582     5.9529    -0.8005 C.3     
  26 C26            7.3644     4.6449    -0.8134 C.3     
  27 O27            7.4377    -5.3176    -1.1111 O.3     
  28 C28            7.1734    -6.5018    -0.3359 C.3     
  29 O29            5.8453    -6.2859     0.1765 O.3     
  30 H30           -0.9608     1.9109     0.0447 H       
  31 H31           -0.9304    -0.5452     0.0113 H       
  32 H32            1.1770    -1.7676    -0.0267 H       
  33 H33            1.1257     3.1806     0.0477 H       
  34 H34            6.8050     2.0711    -0.0199 H       
  35 H35            6.7527    -0.3312    -0.1395 H       
  36 H36            7.4990    -2.4919    -1.2596 H       
  37 H37            4.0293    -4.6011     1.5450 H       
  38 H38            4.1474    -2.1498     1.3728 H       
  39 H39            5.4855     5.6094    -0.3888 H       
  40 H40            5.5791     5.2750     2.0664 H       
  41 H41            7.0936     4.3577     1.8837 H       
  42 H42            6.6642     7.2662     1.0632 H       
  43 H43            7.5499     6.7144     2.5052 H       
  44 H44            9.1085     7.2335     0.6478 H       
  45 H45            9.1546     5.5014     1.0553 H       
  46 H46            7.5466     6.7531    -1.2172 H       
  47 H47            9.0610     5.8359    -1.3999 H       
  48 H48            7.9760     3.8446    -0.3967 H       
  49 H49            7.0903     4.3964    -1.8387 H       
  50 H50            7.2000    -7.3883    -0.9697 H       
  51 H51            7.8892    -6.5924     0.4811 H       
@<TRIPOS>BOND
   1    1    2 ar
   2    1    6 ar
   3    1   30 1
   4    2    3 ar
   5    2   31 1
   6    3    4 ar
   7    3   32 1
   8    4    5 ar
   9    4    7 ar
  10    5    6 ar
  11    5   10 ar
  12    6   33 1
  13    7    8 ar
  14    8    9 ar
  15    8   14 1
  16    9   10 ar
  17    9   11 1
  18   10   13 1
  19   11   12 1
  20   11   34 1
  21   12   13 2
  22   12   21 1
  23   14   15 1
  24   14   35 1
  25   15   16 ar
  26   15   20 ar
  27   16   17 ar
  28   16   36 1
  29   17   18 ar
  30   17   27 1
  31   18   19 ar
  32   18   29 1
  33   19   20 ar
  34   19   37 1
  35   20   38 1
  36   21   22 1
  37   21   26 1
  38   21   39 1
  39   22   23 1
  40   22   40 1
  41   22   41 1
  42   23   24 1
  43   23   42 1
  44   23   43 1
  45   24   25 1
  46   24   44 1
  47   24   45 1
  48   25   26 1
  49   25   46 1
  50   25   47 1
  51   26   48 1
  52   26   49 1
  53   27   28 1
  54   28   29 1
  55   28   50 1
  56   28   51 1

#	End of record

