#	Name: ASD05143315
#	Creating user name:	WinNT
#	Creation time:	15. 06. 2019 20:57

#	Modifying user name:	WinNT
#	Modification time:	15. 06. 2019 20:57

#	Program:	/corina/corina34_cracker 3.40 0067  02.08.2006

@<TRIPOS>MOLECULE
ASD05143315
  53   55    0    0    0
SMALL
NO_CHARGES


@<TRIPOS>ATOM
   1 C1             0.3881     1.2307     0.2694 C.2     
   2 N2             0.3827    -0.0348    -0.1000 N.2     
   3 S3            -1.2545    -0.4792    -0.1966 S.3     
   4 C4            -1.8504     1.0688     0.2673 C.2     
   5 N5            -0.7814     1.8079     0.4668 N.2     
   6 N6            -3.1717     1.4513     0.4057 N.pl3   
   7 C7            -3.4840     2.7259     0.8941 C.ar    
   8 C8            -4.8060     3.0583     1.1842 C.ar    
   9 C9            -5.1089     4.3202     1.6674 C.ar    
  10 C10           -4.1010     5.2474     1.8611 C.ar    
  11 C11           -2.7896     4.9186     1.5731 C.ar    
  12 C12           -2.4779     3.6591     1.0958 C.ar    
  13 C13            1.4728    -0.8281    -0.3543 C.ar    
  14 C14            2.4014    -0.4530    -1.3248 C.ar    
  15 C15            1.6616    -2.0159     0.3633 C.ar    
  16 C16            2.7643    -2.8097     0.0997 C.ar    
  17 C17            3.6760    -2.4307    -0.8692 C.ar    
  18 C18            3.4962    -1.2553    -1.5763 C.ar    
  19 C19            1.6557     1.9724     0.4608 C.ar    
  20 C20            1.7150     3.3386     0.1847 C.ar    
  21 C21            2.7917     1.3076     0.9230 C.ar    
  22 C22            3.9699     2.0012     1.1005 C.ar    
  23 C23            4.0267     3.3599     0.8197 C.ar    
  24 C24            2.8965     4.0259     0.3645 C.ar    
  25 O25            5.1893     4.0404     0.9962 O.3     
  26 C26            5.1775     5.4358     0.6882 C.3     
  27 O27            0.7657    -2.3874     1.3153 O.3     
  28 C28            1.0235    -3.6113     2.0065 C.3     
  29 O29           -5.7961     2.1459     0.9929 O.3     
  30 C30           -7.1272     2.5565     1.3117 C.3     
  31 H31           -3.8823     0.8368     0.1646 H       
  32 H32           -6.1325     4.5806     1.8927 H       
  33 H33           -4.3392     6.2310     2.2380 H       
  34 H34           -2.0060     5.6460     1.7257 H       
  35 H35           -1.4525     3.4049     0.8716 H       
  36 H36            2.2641     0.4638    -1.8790 H       
  37 H37            2.9134    -3.7262     0.6513 H       
  38 H38            4.5350    -3.0532    -1.0715 H       
  39 H39            4.2127    -0.9666    -2.3311 H       
  40 H40            0.8364     3.8571    -0.1698 H       
  41 H41            2.7482     0.2509     1.1420 H       
  42 H42            4.8497     1.4872     1.4587 H       
  43 H43            2.9442     5.0827     0.1470 H       
  44 H44            4.9133     5.5742    -0.3602 H       
  45 H45            4.4443     5.9405     1.3173 H       
  46 H46            6.1658     5.8570     0.8725 H       
  47 H47            1.0493    -4.4338     1.2918 H       
  48 H48            1.9836    -3.5443     2.5182 H       
  49 H49            0.2342    -3.7893     2.7369 H       
  50 H50           -7.1805     2.8299     2.3655 H       
  51 H51           -7.3988     3.4162     0.6991 H       
  52 H52           -7.8176     1.7366     1.1137 H       
  53 Br53          11.1658    11.2310     7.7369 Br      
@<TRIPOS>BOND
   1    1    2 2
   2    1   19 1
   3    1    5 1
   4    2    3 1
   5    2   13 1
   6    3    4 1
   7    4    5 2
   8    4    6 1
   9    6    7 1
  10    6   31 1
  11    7    8 ar
  12    7   12 ar
  13    8    9 ar
  14    8   29 1
  15    9   10 ar
  16    9   32 1
  17   10   11 ar
  18   10   33 1
  19   11   12 ar
  20   11   34 1
  21   12   35 1
  22   13   14 ar
  23   13   15 ar
  24   14   18 ar
  25   14   36 1
  26   15   16 ar
  27   15   27 1
  28   16   17 ar
  29   16   37 1
  30   17   18 ar
  31   17   38 1
  32   18   39 1
  33   19   20 ar
  34   19   21 ar
  35   20   24 ar
  36   20   40 1
  37   21   22 ar
  38   21   41 1
  39   22   23 ar
  40   22   42 1
  41   23   24 ar
  42   23   25 1
  43   24   43 1
  44   25   26 1
  45   26   44 1
  46   26   45 1
  47   26   46 1
  48   27   28 1
  49   28   47 1
  50   28   48 1
  51   28   49 1
  52   29   30 1
  53   30   50 1
  54   30   51 1
  55   30   52 1

#	End of record

