#	Name: ASD01901416
#	Creating user name:	WinNT
#	Creation time:	15. 06. 2019 19:53

#	Modifying user name:	WinNT
#	Modification time:	15. 06. 2019 19:53

#	Program:	/corina/corina34_cracker 3.40 0067  02.08.2006

@<TRIPOS>MOLECULE
ASD01901416
  41   44    0    0    0
SMALL
NO_CHARGES


@<TRIPOS>ATOM
   1 C1            -0.0169     1.3936     0.0097 C.ar    
   2 C2             1.1760     2.0980     0.0021 C.ar    
   3 C3             2.3811     1.4193    -0.0131 C.ar    
   4 C4             2.4024     0.0346    -0.0207 C.ar    
   5 C5             1.2207    -0.6783    -0.0137 C.ar    
   6 C6             0.0021    -0.0041     0.0020 C.ar    
   7 C7            -1.2710    -0.7664     0.0106 C.2     
   8 N8            -3.1792    -1.5374    -1.1467 N.2     
   9 C9            -2.0558    -0.8626    -1.1592 C.2     
  10 C10           -1.6977    -1.3902     1.1495 C.2     
  11 N11           -2.8722    -2.0828     1.1227 N.pl3   
  12 C12           -3.6083    -2.1482    -0.0322 C.2     
  13 C13           -3.5492    -2.7961     2.0748 C.2     
  14 C14           -4.6680    -3.2752     1.4907 C.2     
  15 N15           -4.6899    -2.8732     0.2165 N.2     
  16 C16           -5.7177    -4.1215     2.1636 C.3     
  17 O17           -5.3488    -4.3438     3.5262 O.3     
  18 C18           -6.1933    -5.0933     4.2785 C.ar    
  19 C19           -5.8920    -5.3395     5.6117 C.ar    
  20 N20           -7.2984    -5.5779     3.7367 N.ar    
  21 C21           -8.1465    -6.3111     4.4322 C.ar    
  22 C22           -7.9076    -6.6002     5.7612 C.ar    
  23 C23           -6.7618    -6.1056     6.3683 C.ar    
  24 Cl24           3.8730     2.3068    -0.0231 Cl      
  25 O25           -1.2013     2.0591     0.0302 O.3     
  26 C26           -1.1431     3.4869     0.0370 C.3     
  27 H27            1.1650     3.1779     0.0076 H       
  28 H28            3.3468    -0.4891    -0.0325 H       
  29 H29            1.2408    -1.7581    -0.0200 H       
  30 H30           -1.7293    -0.3780    -2.0675 H       
  31 H31           -1.1137    -1.3357     2.0564 H       
  32 H32           -3.2454    -2.9473     3.1001 H       
  33 H33           -6.6780    -3.6071     2.1265 H       
  34 H34           -5.7981    -5.0786     1.6482 H       
  35 H35           -4.9909    -4.9389     6.0521 H       
  36 H36           -9.0390    -6.6897     3.9563 H       
  37 H37           -8.6071    -7.2012     6.3233 H       
  38 H38           -6.5537    -6.3134     7.4075 H       
  39 H39           -0.6022     3.8243     0.9211 H       
  40 H40           -0.6278     3.8338    -0.8587 H       
  41 H41           -2.1551     3.8916     0.0536 H       
@<TRIPOS>BOND
   1    1    6 ar
   2    1    2 ar
   3    1   25 1
   4    2    3 ar
   5    2   27 1
   6    3    4 ar
   7    3   24 1
   8    4    5 ar
   9    4   28 1
  10    5    6 ar
  11    5   29 1
  12    6    7 1
  13    7   10 2
  14    7    9 1
  15    8    9 2
  16    8   12 1
  17    9   30 1
  18   10   11 1
  19   10   31 1
  20   11   13 1
  21   11   12 1
  22   12   15 2
  23   13   14 2
  24   13   32 1
  25   14   15 1
  26   14   16 1
  27   16   17 1
  28   16   33 1
  29   16   34 1
  30   17   18 1
  31   18   20 ar
  32   18   19 ar
  33   19   23 ar
  34   19   35 1
  35   20   21 ar
  36   21   22 ar
  37   21   36 1
  38   22   23 ar
  39   22   37 1
  40   23   38 1
  41   25   26 1
  42   26   39 1
  43   26   40 1
  44   26   41 1

#	End of record

