#	Name: ASD02198147
#	Creating user name:	WinNT
#	Creation time:	15. 06. 2019 20:18

#	Modifying user name:	WinNT
#	Modification time:	15. 06. 2019 20:18

#	Program:	/corina/corina34_cracker 3.40 0067  02.08.2006

@<TRIPOS>MOLECULE
ASD02198147
  45   48    0    0    0
SMALL
NO_CHARGES


@<TRIPOS>ATOM
   1 C1            -0.0166     1.3753     0.0096 C.2     
   2 C2             0.0021    -0.0041     0.0020 C.2     
   3 C3            -1.1878    -0.8008     0.0083 C.1     
   4 S4             1.5675     2.0054    -0.0021 S.3     
   5 C5             2.2772     0.3990    -0.0175 C.2     
   6 C6             1.2824    -0.5520    -0.0131 C.2     
   7 C7             3.6579     0.1249    -0.0326 C.2     
   8 C8             4.6308     1.2351    -0.0359 C.2     
   9 O9             4.0505    -1.0301    -0.0430 O.2     
  10 N10            1.5294    -1.9154    -0.0219 N.pl3   
  11 N11           -1.1593     2.1393     0.0193 N.pl3   
  12 N12           -2.1317    -1.4328     0.0134 N.1     
  13 O13            4.3523     2.5520    -0.0253 O.3     
  14 C14           -1.0630     3.6011     0.0268 C.3     
  15 C15           -2.3387     4.2164    -0.5746 C.3     
  16 N16            5.3581     3.2224    -0.0315 N.2     
  17 C17            6.4372     2.4802    -0.0468 C.2     
  18 C18            5.9936     1.1303    -0.0443 C.2     
  19 C19            7.8438     2.9548    -0.0589 C.ar    
  20 C20            8.1210     4.3201    -0.0539 C.ar    
  21 C21            9.4305     4.7560    -0.0653 C.ar    
  22 C22           10.4668     3.8399    -0.0821 C.ar    
  23 C23           10.1972     2.4832    -0.0872 C.ar    
  24 C24            8.8914     2.0365    -0.0697 C.ar    
  25 C25           -2.9730     5.0847     0.5316 C.3     
  26 C26           -1.7895     5.4291     1.4695 C.3     
  27 C27           -0.9666     4.1169     1.4775 C.3     
  28 H28            2.4424    -2.2428    -0.0317 H       
  29 H29            0.7893    -2.5424    -0.0182 H       
  30 H30           -2.0294     1.7105     0.0212 H       
  31 H31           -0.1902     3.9204    -0.5426 H       
  32 H32           -2.0849     4.8351    -1.4354 H       
  33 H33           -3.0294     3.4274    -0.8720 H       
  34 H34            6.5928     0.2319    -0.0536 H       
  35 H35            7.3126     5.0362    -0.0415 H       
  36 H36            9.6465     5.8141    -0.0614 H       
  37 H37           11.4901     4.1852    -0.0917 H       
  38 H38           11.0101     1.7722    -0.1004 H       
  39 H39            8.6820     0.9770    -0.0736 H       
  40 H40           -3.3994     5.9931     0.1061 H       
  41 H41           -3.7346     4.5204     1.0698 H       
  42 H42           -1.2010     6.2516     1.0629 H       
  43 H43           -2.1471     5.6669     2.4714 H       
  44 H44           -1.4041     3.3964     2.1684 H       
  45 H45            0.0713     4.3191     1.7422 H       
@<TRIPOS>BOND
   1    1    2 2
   2    1    4 1
   3    1   11 1
   4    2    3 1
   5    2    6 1
   6    3   12 3
   7    4    5 1
   8    5    6 2
   9    5    7 1
  10    6   10 1
  11    7    8 1
  12    7    9 2
  13    8   13 1
  14    8   18 2
  15   10   28 1
  16   10   29 1
  17   11   14 1
  18   11   30 1
  19   13   16 1
  20   14   15 1
  21   14   27 1
  22   14   31 1
  23   15   25 1
  24   15   32 1
  25   15   33 1
  26   16   17 2
  27   17   18 1
  28   17   19 1
  29   18   34 1
  30   19   20 ar
  31   19   24 ar
  32   20   21 ar
  33   20   35 1
  34   21   22 ar
  35   21   36 1
  36   22   23 ar
  37   22   37 1
  38   23   24 ar
  39   23   38 1
  40   24   39 1
  41   25   26 1
  42   25   40 1
  43   25   41 1
  44   26   27 1
  45   26   42 1
  46   26   43 1
  47   27   44 1
  48   27   45 1

#	End of record

