#	Name: ASD03430054
#	Creating user name:	WinNT
#	Creation time:	15. 06. 2019 20:40

#	Modifying user name:	WinNT
#	Modification time:	15. 06. 2019 20:40

#	Program:	/corina/corina34_cracker 3.40 0067  02.08.2006

@<TRIPOS>MOLECULE
ASD03430054
  52   57    0    0    0
SMALL
NO_CHARGES


@<TRIPOS>ATOM
   1 C1             1.8528     1.2941    -1.0492 C.ar    
   2 C2             1.2888     0.0564    -0.7806 C.ar    
   3 C3             2.0856    -1.0002    -0.3938 C.ar    
   4 C4             3.4610    -0.8378    -0.2568 C.ar    
   5 C5             4.0240     0.4047    -0.5297 C.ar    
   6 C6             3.2264     1.4661    -0.9231 C.ar    
   7 O7             4.0558    -1.9926     0.1588 O.3     
   8 C8             1.7885    -2.4383    -0.0626 C.3     
   9 C9             3.1723    -3.1013    -0.0968 C.3     
  10 C10           -0.0754    -3.2470     1.0284 C.ar    
  11 C11            1.1269    -2.5904     1.2747 C.ar    
  12 C12            0.8445    -3.0660    -1.0475 C.2     
  13 N13           -0.2108    -3.5112    -0.3367 N.am    
  14 O14            1.0006    -3.1544    -2.2470 O.2     
  15 C15            1.4776    -2.2254     2.5604 C.ar    
  16 C16            0.6260    -2.5136     3.6195 C.ar    
  17 C17           -0.5690    -3.1650     3.3815 C.ar    
  18 C18           -0.9210    -3.5309     2.0982 C.ar    
  19 C19           -1.3651    -4.1935    -0.9270 C.3     
  20 O20            1.0522     2.3241    -1.4390 O.3     
  21 C21            1.6062     3.6409    -1.3441 C.3     
  22 C22            3.0230     3.6094    -1.9330 C.3     
  23 O23            3.8015     2.6733    -1.1802 O.3     
  24 O24            2.6540    -1.5849     2.7885 O.3     
  25 C25            3.0085    -1.3413     4.0784 C.ar    
  26 C26            3.7361    -2.2845     4.7996 C.ar    
  27 C27            2.6553    -0.1493     4.6896 C.ar    
  28 N28            2.9962     0.0943     5.9411 N.ar    
  29 C29            3.6819    -0.7802     6.6572 C.ar    
  30 C30            4.0750    -1.9944     6.1092 C.ar    
  31 O31            4.0101    -0.4858     7.9411 O.3     
  32 C32            3.5824     0.7808     8.4460 C.3     
  33 H33            0.2216    -0.0804    -0.8742 H       
  34 H34            5.0908     0.5426    -0.4337 H       
  35 H35            3.3695    -3.5353    -1.0770 H       
  36 H36            3.2600    -3.8546     0.6861 H       
  37 H37            0.8974    -2.2298     4.6256 H       
  38 H38           -1.2313    -3.3894     4.2045 H       
  39 H39           -1.8573    -4.0398     1.9225 H       
  40 H40           -2.1206    -3.4576    -1.2021 H       
  41 H41           -1.0490    -4.7394    -1.8160 H       
  42 H42           -1.7844    -4.8913    -0.2022 H       
  43 H43            0.9893     4.3408    -1.9077 H       
  44 H44            1.6492     3.9471    -0.2989 H       
  45 H45            2.9806     3.2962    -2.9762 H       
  46 H46            3.4718     4.6003    -1.8642 H       
  47 H47            4.0287    -3.2206     4.3474 H       
  48 H48            2.0949     0.5891     4.1356 H       
  49 H49            4.6348    -2.7049     6.6993 H       
  50 H50            3.9092     0.8889     9.4802 H       
  51 H51            4.0166     1.5779     7.8426 H       
  52 H52            2.4950     0.8417     8.4004 H       
@<TRIPOS>BOND
   1    1    2 ar
   2    1    6 ar
   3    1   20 1
   4    2    3 ar
   5    2   33 1
   6    3    4 ar
   7    3    8 1
   8    4    5 ar
   9    4    7 1
  10    5    6 ar
  11    5   34 1
  12    6   23 1
  13    7    9 1
  14    8    9 1
  15    8   11 1
  16    8   12 1
  17    9   35 1
  18    9   36 1
  19   10   11 ar
  20   10   13 1
  21   10   18 ar
  22   11   15 ar
  23   12   13 am
  24   12   14 2
  25   13   19 1
  26   15   16 ar
  27   15   24 1
  28   16   17 ar
  29   16   37 1
  30   17   18 ar
  31   17   38 1
  32   18   39 1
  33   19   40 1
  34   19   41 1
  35   19   42 1
  36   20   21 1
  37   21   22 1
  38   21   43 1
  39   21   44 1
  40   22   23 1
  41   22   45 1
  42   22   46 1
  43   24   25 1
  44   25   27 ar
  45   25   26 ar
  46   26   30 ar
  47   26   47 1
  48   27   28 ar
  49   27   48 1
  50   28   29 ar
  51   29   30 ar
  52   29   31 1
  53   30   49 1
  54   31   32 1
  55   32   50 1
  56   32   51 1
  57   32   52 1

#	End of record

