#	Name: ASD01940176
#	Creating user name:	WinNT
#	Creation time:	15. 06. 2019 20:11

#	Modifying user name:	WinNT
#	Modification time:	15. 06. 2019 20:11

#	Program:	/corina/corina34_cracker 3.40 0067  02.08.2006

@<TRIPOS>MOLECULE
ASD01940176
  42   43    0    0    0
SMALL
NO_CHARGES


@<TRIPOS>ATOM
   1 I1             2.7923    -4.5927    -1.6215 I       
   2 F2             1.9042     1.5929     2.2861 F       
   3 C3             1.0655     2.1477     1.3837 C.ar    
   4 C4             1.3895     2.1334     0.0336 C.ar    
   5 C5             0.5208     2.7066    -0.8937 C.ar    
   6 C6            -0.6626     3.2883    -0.4640 C.ar    
   7 C7            -0.9797     3.2999     0.8818 C.ar    
   8 C8            -0.1213     2.7262     1.8042 C.ar    
   9 N9             2.5869     1.5447    -0.3957 N.pl3   
  10 N10            0.8428     2.6955    -2.2575 N.am    
  11 C11            2.6334     0.1742    -0.6694 C.ar    
  12 C12            1.4783    -0.5914    -0.5868 C.ar    
  13 C13            1.5271    -1.9454    -0.8583 C.ar    
  14 C14            2.7249    -2.5393    -1.2118 C.ar    
  15 C15            3.8792    -1.7805    -1.2950 C.ar    
  16 C16            3.8365    -0.4244    -1.0308 C.ar    
  17 F17            4.9632     0.3166    -1.1121 F       
  18 F18           -0.4390     2.7351     3.1173 F       
  19 S19            0.4264     3.9794    -3.2170 S.o2    
  20 O20            0.9908     3.6680    -4.4834 O.2     
  21 O21           -0.9798     4.0993    -3.0512 O.2     
  22 C22           -0.3252     7.0945    -3.0112 C.3     
  23 C23           -0.5230     8.3499    -3.8630 C.3     
  24 C24           -1.9304     8.9048    -3.6345 C.3     
  25 C25            1.2785     5.3967    -2.4716 C.3     
  26 O26            0.9893     6.5763    -3.2246 O.3     
  27 H27           -1.3368     3.7328    -1.1811 H       
  28 H28           -1.9017     3.7538     1.2139 H       
  29 H29            3.3833     2.0880    -0.5029 H       
  30 H30            1.3096     1.9359    -2.6395 H       
  31 H31            0.5423    -0.1291    -0.3102 H       
  32 H32            0.6284    -2.5408    -0.7940 H       
  33 H33            4.8131    -2.2474    -1.5710 H       
  34 H34           -0.4497     7.3467    -1.9581 H       
  35 H35           -1.0623     6.3432    -3.2945 H       
  36 H36            0.2142     9.1012    -3.5797 H       
  37 H37           -0.3985     8.0978    -4.9161 H       
  38 H38           -2.0714     9.7991    -4.2414 H       
  39 H39           -2.6676     8.1535    -3.9178 H       
  40 H40           -2.0550     9.1569    -2.5814 H       
  41 H41            0.9359     5.5279    -1.4452 H       
  42 H42            2.3536     5.2175    -2.4756 H       
@<TRIPOS>BOND
   1    1   14 1
   2    2    3 1
   3    3    4 ar
   4    3    8 ar
   5    4    5 ar
   6    4    9 1
   7    5    6 ar
   8    5   10 1
   9    6    7 ar
  10    6   27 1
  11    7    8 ar
  12    7   28 1
  13    8   18 1
  14    9   11 1
  15    9   29 1
  16   10   19 am
  17   10   30 1
  18   11   12 ar
  19   11   16 ar
  20   12   13 ar
  21   12   31 1
  22   13   14 ar
  23   13   32 1
  24   14   15 ar
  25   15   16 ar
  26   15   33 1
  27   16   17 1
  28   19   20 2
  29   19   21 2
  30   19   25 1
  31   22   26 1
  32   22   23 1
  33   22   34 1
  34   22   35 1
  35   23   24 1
  36   23   36 1
  37   23   37 1
  38   24   38 1
  39   24   39 1
  40   24   40 1
  41   25   26 1
  42   25   41 1
  43   25   42 1

#	End of record

