#	Name: ASD07300651
#	Creating user name:	WinNT
#	Creation time:	15. 06. 2019 21:10

#	Modifying user name:	WinNT
#	Modification time:	15. 06. 2019 21:10

#	Program:	/corina/corina34_cracker 3.40 0067  02.08.2006

@<TRIPOS>MOLECULE
ASD07300651
  27   29    0    0    0
SMALL
NO_CHARGES


@<TRIPOS>ATOM
   1 C1             1.2310    -0.6660    -0.2458 C.2     
   2 C2             0.0021    -0.0041     0.0020 C.2     
   3 N3             2.3886     0.0713    -0.2470 N.pl3   
   4 N4            -0.0031     1.2948     0.2244 N.2     
   5 C5             1.1306     2.0043     0.2211 C.2     
   6 C6             2.3225     1.4204    -0.0098 C.2     
   7 N7             1.5461    -1.9237    -0.5005 N.2     
   8 C8             2.8669    -2.0203    -0.6589 C.2     
   9 C9             3.4107    -0.7882    -0.5059 C.2     
  10 N10           -1.1857    -0.7180     0.0100 N.pl3   
  11 C11           -1.1887    -2.1848    -0.1078 C.3     
  12 C12           -2.0509    -2.7588     1.0222 C.3     
  13 O13           -3.3290    -2.1184     1.0109 O.3     
  14 C14           -3.2804    -0.7106     1.2551 C.3     
  15 C15           -2.4808    -0.0321     0.1427 C.3     
  16 Br16           5.2450    -0.3465    -0.6323 Br      
  17 H17            1.0897     3.0674     0.4071 H       
  18 H18            3.2249     2.0138    -0.0071 H       
  19 H19            3.4112    -2.9273    -0.8765 H       
  20 H20           -1.6065    -2.4748    -1.0719 H       
  21 H21           -0.1699    -2.5622    -0.0202 H       
  22 H22           -2.1796    -3.8309     0.8733 H       
  23 H23           -1.5623    -2.5796     1.9800 H       
  24 H24           -4.2936    -0.3092     1.2738 H       
  25 H25           -2.7963    -0.5239     2.2137 H       
  26 H26           -2.3173     1.0153     0.3961 H       
  27 H27           -3.0309    -0.1017    -0.7958 H       
@<TRIPOS>BOND
   1    1    2 1
   2    1    3 1
   3    1    7 2
   4    2    4 2
   5    2   10 1
   6    3    6 1
   7    3    9 1
   8    4    5 1
   9    5    6 2
  10    5   17 1
  11    6   18 1
  12    7    8 1
  13    8    9 2
  14    8   19 1
  15    9   16 1
  16   10   11 1
  17   10   15 1
  18   11   12 1
  19   11   20 1
  20   11   21 1
  21   12   13 1
  22   12   22 1
  23   12   23 1
  24   13   14 1
  25   14   15 1
  26   14   24 1
  27   14   25 1
  28   15   26 1
  29   15   27 1

#	End of record

