#	Name: ASD03731774
#	Creating user name:	WinNT
#	Creation time:	15. 06. 2019 20:46

#	Modifying user name:	WinNT
#	Modification time:	15. 06. 2019 20:46

#	Program:	/corina/corina34_cracker 3.40 0067  02.08.2006

@<TRIPOS>MOLECULE
ASD03731774
  37   38    0    0    0
SMALL
NO_CHARGES


@<TRIPOS>ATOM
   1 C1             0.7607     1.4116    -0.3952 C.2     
   2 C2             0.5757    -0.0464    -0.2975 C.ar    
   3 C3             1.5364    -0.9162    -0.8361 C.ar    
   4 C4             1.3550    -2.2848    -0.7395 C.ar    
   5 C5             0.2267    -2.7932    -0.1120 C.ar    
   6 C6            -0.7270    -1.9319     0.4221 C.ar    
   7 C7            -0.5550    -0.5695     0.3374 C.ar    
   8 O8             1.7475     1.8640    -0.9435 O.2     
   9 N9            -0.1664     2.2444     0.1180 N.am    
  10 S10            0.0416     3.8837     0.0081 S.o2    
  11 O11           -1.0954     4.4260     0.6656 O.2     
  12 O12            1.3527     4.1049     0.5095 O.2     
  13 C13           -0.0264     4.2303    -1.7711 C.3     
  14 O14            2.6386    -0.4172    -1.4496 O.3     
  15 C15            3.5733    -1.3625    -1.9738 C.3     
  16 O16            0.0523    -4.1357    -0.0192 O.3     
  17 C17            0.5763    -4.7741     1.0601 C.ar    
  18 C18            0.5179    -6.1578     1.1448 C.ar    
  19 C19            1.0511    -6.8047     2.2426 C.ar    
  20 C20            1.6431    -6.0738     3.2575 C.ar    
  21 C21            1.7019    -4.6938     3.1752 C.ar    
  22 C22            1.1754    -4.0434     2.0761 C.ar    
  23 Cl23           2.3124    -6.8892     4.6362 Cl      
  24 H24            2.0919    -2.9574    -1.1530 H       
  25 H25           -1.6032    -2.3344     0.9085 H       
  26 H26           -1.2952     0.0956     0.7571 H       
  27 H27           -0.9554     1.8837     0.5518 H       
  28 H28           -0.9923     3.9153    -2.1660 H       
  29 H29            0.1032     5.2996    -1.9382 H       
  30 H30            0.7690     3.6843    -2.2784 H       
  31 H31            3.0800    -1.9858    -2.7196 H       
  32 H32            4.4055    -0.8322    -2.4366 H       
  33 H33            3.9472    -1.9905    -1.1652 H       
  34 H34            0.0556    -6.7286     0.3530 H       
  35 H35            1.0055    -7.8817     2.3091 H       
  36 H36            2.1638    -4.1251     3.9687 H       
  37 H37            1.2258    -2.9667     2.0099 H       
@<TRIPOS>BOND
   1    1    2 1
   2    1    8 2
   3    1    9 am
   4    2    3 ar
   5    2    7 ar
   6    3    4 ar
   7    3   14 1
   8    4    5 ar
   9    4   24 1
  10    5    6 ar
  11    5   16 1
  12    6    7 ar
  13    6   25 1
  14    7   26 1
  15    9   10 am
  16    9   27 1
  17   10   11 2
  18   10   12 2
  19   10   13 1
  20   13   28 1
  21   13   29 1
  22   13   30 1
  23   14   15 1
  24   15   31 1
  25   15   32 1
  26   15   33 1
  27   16   17 1
  28   17   18 ar
  29   17   22 ar
  30   18   19 ar
  31   18   34 1
  32   19   20 ar
  33   19   35 1
  34   20   21 ar
  35   20   23 1
  36   21   22 ar
  37   21   36 1
  38   22   37 1

#	End of record

