#	Name: ASD01440026
#	Creating user name:	WinNT
#	Creation time:	15. 06. 2019 19:20

#	Modifying user name:	WinNT
#	Modification time:	15. 06. 2019 19:20

#	Program:	/corina/corina34_cracker 3.40 0067  02.08.2006

@<TRIPOS>MOLECULE
ASD01440026
  41   43    0    0    0
SMALL
NO_CHARGES


@<TRIPOS>ATOM
   1 C1             0.9293     0.2440    -2.1121 C.ar    
   2 C2            -0.1549     0.8562    -1.5107 C.ar    
   3 N3             0.0028     1.9297    -0.7616 N.ar    
   4 C4             1.1901     2.4634    -0.5537 C.ar    
   5 C5             2.3267     1.9057    -1.1236 C.ar    
   6 C6             2.1958     0.7711    -1.9207 C.ar    
   7 N7             3.5854     2.4756    -0.9009 N.am    
   8 C8             4.6828     1.6939    -0.8682 C.2     
   9 C9             6.0490     2.3179    -0.7443 C.3     
  10 O10            4.5709     0.4883    -0.9385 O.2     
  11 O11            7.0424     1.2908    -0.7314 O.3     
  12 C12            8.3359     1.6862    -0.6243 C.ar    
  13 C13            8.6415     3.0392    -0.5275 C.ar    
  14 C14            9.3517     0.7368    -0.6058 C.ar    
  15 C15           10.6653     1.1335    -0.4964 C.ar    
  16 C16           10.9775     2.4936    -0.4042 C.ar    
  17 C17            9.9524     3.4448    -0.4187 C.ar    
  18 C18           12.3834     2.9233    -0.2863 C.2     
  19 C19           13.4709     2.0194    -0.7158 C.ar    
  20 O20           12.6478     4.0212     0.1643 O.2     
  21 C21           14.2464     0.1960    -2.0745 C.ar    
  22 C22           13.2271     1.0364    -1.6773 C.ar    
  23 C23           14.7483     2.1483    -0.1662 C.ar    
  24 C24           15.7593     1.3010    -0.5725 C.ar    
  25 C25           15.5086     0.3252    -1.5231 C.ar    
  26 Cl26          17.3482     1.4588     0.1089 Cl      
  27 H27            0.7908    -0.6376    -2.7204 H       
  28 H28           -1.1446     0.4495    -1.6569 H       
  29 H29            1.2795     3.3435     0.0659 H       
  30 H30            3.0605     0.3133    -2.3780 H       
  31 H31            3.6679     3.4332    -0.7700 H       
  32 H32            6.2235     2.9815    -1.5912 H       
  33 H33            6.1048     2.8891     0.1824 H       
  34 H34            7.8491     3.7730    -0.5381 H       
  35 H35            9.1097    -0.3133    -0.6771 H       
  36 H36           11.4536     0.3954    -0.4814 H       
  37 H37           10.1888     4.4960    -0.3443 H       
  38 H38           14.0586    -0.5647    -2.8177 H       
  39 H39           12.2423     0.9341    -2.1088 H       
  40 H40           14.9447     2.9094     0.5745 H       
  41 H41           16.3029    -0.3355    -1.8378 H       
@<TRIPOS>BOND
   1    1    2 ar
   2    1    6 ar
   3    1   27 1
   4    2    3 ar
   5    2   28 1
   6    3    4 ar
   7    4    5 ar
   8    4   29 1
   9    5    6 ar
  10    5    7 1
  11    6   30 1
  12    7    8 am
  13    7   31 1
  14    8    9 1
  15    8   10 2
  16    9   11 1
  17    9   32 1
  18    9   33 1
  19   11   12 1
  20   12   14 ar
  21   12   13 ar
  22   13   17 ar
  23   13   34 1
  24   14   15 ar
  25   14   35 1
  26   15   16 ar
  27   15   36 1
  28   16   17 ar
  29   16   18 1
  30   17   37 1
  31   18   19 1
  32   18   20 2
  33   19   23 ar
  34   19   22 ar
  35   21   22 ar
  36   21   25 ar
  37   21   38 1
  38   22   39 1
  39   23   24 ar
  40   23   40 1
  41   24   25 ar
  42   24   26 1
  43   25   41 1

#	End of record

