#	Name: ASD01148414
#	Creating user name:	WinNT
#	Creation time:	15. 06. 2019 19:02

#	Modifying user name:	WinNT
#	Modification time:	15. 06. 2019 19:02

#	Program:	/corina/corina34_cracker 3.40 0067  02.08.2006

@<TRIPOS>MOLECULE
ASD01148414
  47   49    0    0    0
SMALL
NO_CHARGES


@<TRIPOS>ATOM
   1 C1             0.3639     1.8427     0.0682 C.ar    
   2 C2             0.4625     0.4639    -0.0070 C.ar    
   3 C3            -0.6839    -0.3073    -0.0945 C.ar    
   4 C4            -1.9265     0.3005    -0.1067 C.ar    
   5 C5            -2.0238     1.6773    -0.0320 C.ar    
   6 C6            -0.8800     2.4480     0.0616 C.ar    
   7 C7            -3.3780     2.3383    -0.0464 C.3     
   8 O8            -4.3708     1.4946     0.5717 O.3     
   9 C9            -3.3987     3.5787     0.8785 C.3     
  10 C10           -3.9261     3.0094     2.1818 C.2     
  11 N11           -4.4465     1.8536     1.9372 N.2     
  12 C12           -3.8563     3.6644     3.5027 C.ar    
  13 C13           -4.3839     3.0256     4.6281 C.ar    
  14 C14           -3.2577     4.9204     3.6289 C.ar    
  15 C15           -3.1927     5.5313     4.8608 C.ar    
  16 C16           -3.7253     4.8952     5.9849 C.ar    
  17 C17           -4.3188     3.6364     5.8597 C.ar    
  18 C18           -3.6555     5.5508     7.3070 C.2     
  19 O19           -4.2150     5.0512     8.2634 O.2     
  20 N20           -2.9714     6.7029     7.4526 N.am    
  21 C21           -4.8938     2.9505     7.0722 C.3     
  22 C22           -3.7873     2.7109    -1.4728 C.3     
  23 F23           -3.8265     1.5572    -2.2631 F       
  24 F24           -5.0529     3.3067    -1.4542 F       
  25 F25           -2.8566     3.6095    -2.0053 F       
  26 Cl26          -0.5620    -2.0364    -0.1894 Cl      
  27 Cl27           2.0226    -0.2975     0.0078 Cl      
  28 Cl28           1.8003     2.8113     0.1778 Cl      
  29 C29           -2.9061     7.3160     8.6890 C.2     
  30 N30           -3.5004     6.7853     9.7047 N.2     
  31 O31           -3.4335     7.4137    10.9719 O.3     
  32 C32           -4.1355     6.7175    12.0037 C.3     
  33 H33           -2.8209    -0.3009    -0.1749 H       
  34 H34           -0.9572     3.5236     0.1203 H       
  35 H35           -2.3938     3.9801     1.0101 H       
  36 H36           -4.0730     4.3411     0.4883 H       
  37 H37           -4.8430     2.0528     4.5314 H       
  38 H38           -2.8457     5.4119     2.7600 H       
  39 H39           -2.7297     6.5021     4.9584 H       
  40 H40           -2.5248     7.1016     6.6893 H       
  41 H41           -5.9014     3.3231     7.2567 H       
  42 H42           -4.9303     1.8751     6.8982 H       
  43 H43           -4.2656     3.1572     7.9386 H       
  44 H44           -2.3579     8.2391     8.8056 H       
  45 H45           -5.1899     6.6411    11.7379 H       
  46 H46           -3.7162     5.7179    12.1178 H       
  47 H47           -4.0361     7.2626    12.9423 H       
@<TRIPOS>BOND
   1    1    2 ar
   2    1   28 1
   3    1    6 ar
   4    2    3 ar
   5    2   27 1
   6    3    4 ar
   7    3   26 1
   8    4    5 ar
   9    4   33 1
  10    5    6 ar
  11    5    7 1
  12    6   34 1
  13    7    8 1
  14    7    9 1
  15    7   22 1
  16    8   11 1
  17    9   10 1
  18    9   35 1
  19    9   36 1
  20   10   11 2
  21   10   12 1
  22   12   13 ar
  23   12   14 ar
  24   13   17 ar
  25   13   37 1
  26   14   15 ar
  27   14   38 1
  28   15   16 ar
  29   15   39 1
  30   16   17 ar
  31   16   18 1
  32   17   21 1
  33   18   19 2
  34   18   20 am
  35   20   29 1
  36   20   40 1
  37   21   41 1
  38   21   42 1
  39   21   43 1
  40   22   23 1
  41   22   24 1
  42   22   25 1
  43   29   30 2
  44   29   44 1
  45   30   31 1
  46   31   32 1
  47   32   45 1
  48   32   46 1
  49   32   47 1

#	End of record

