#	Name: ASD09116144
#	Creating user name:	WinNT
#	Creation time:	15. 06. 2019 21:20

#	Modifying user name:	WinNT
#	Modification time:	15. 06. 2019 21:20

#	Program:	/corina/corina34_cracker 3.40 0067  02.08.2006

@<TRIPOS>MOLECULE
ASD09116144
  85   92    0    0    0
SMALL
NO_CHARGES


@<TRIPOS>ATOM
   1 N1             1.1786     0.3690     3.0714 N.2     
   2 C2             1.3748    -1.0902     3.0100 C.3     
   3 C3             2.2631     0.9076     2.5838 C.2     
   4 N4             3.1742    -0.0088     2.1977 N.2     
   5 C5             2.7570    -1.2309     2.4028 C.2     
   6 N6             2.4567     2.2699     2.4749 N.pl3   
   7 C7             3.6904     2.7693     2.0377 C.ar    
   8 C8             3.7488     3.9813     1.3635 C.ar    
   9 C9             4.8555     2.0544     2.2840 C.ar    
  10 C10            6.0724     2.5473     1.8527 C.ar    
  11 C11            6.1293     3.7591     1.1721 C.ar    
  12 C12            4.9650     4.4745     0.9315 C.ar    
  13 N13            3.4225    -2.3850     2.1287 N.pl3   
  14 C14            1.3377    -1.6902     4.3919 C.ar    
  15 C15            1.0059    -0.8891     5.4654 C.ar    
  16 N16            1.6194    -2.9771     4.5470 N.ar    
  17 C17            1.5966    -3.5261     5.7255 C.ar    
  18 C18            1.2771    -2.7884     6.8715 C.ar    
  19 C19            0.9703    -1.4421     6.7549 C.ar    
  20 C20            1.8975    -4.9822     6.0300 C.3     
  21 C21            3.0430    -4.9760     7.0632 C.3     
  22 C22            2.6511    -4.0944     8.2510 C.3     
  23 N23            1.3007    -3.5317     8.0543 N.3     
  24 C24            0.3279    -4.6376     7.9555 C.3     
  25 C25            0.6546    -5.5335     6.7587 C.3     
  26 C26            0.6259    -0.6207     7.9405 C.ar    
  27 C27            1.2642     0.5996     8.1555 C.ar    
  28 C28           -0.3414    -1.0634     8.8411 C.ar    
  29 C29           -0.6582    -0.2946     9.9425 C.ar    
  30 C30           -0.0181     0.9134    10.1533 C.ar    
  31 C31            0.9393     1.3600     9.2603 C.ar    
  32 N32            7.3625     4.2599     0.7348 N.3     
  33 C33            8.2223     4.6107     1.8738 C.3     
  34 C34            9.5849     5.0774     1.3563 C.3     
  35 N35            9.3987     6.2313     0.4656 N.3     
  36 C36            8.5390     5.8805    -0.6735 C.3     
  37 C37            7.1763     5.4138    -0.1559 C.3     
  38 C38           10.6918     6.7565     0.0070 C.3     
  39 F39            7.2062     1.8528     2.0922 F       
  40 C40           11.4117     5.6889    -0.8193 C.3     
  41 C41           12.7299     6.0833    -1.4885 C.3     
  42 C42           12.7366     5.1496    -0.2764 C.3     
  43 C43            8.3550     7.0885    -1.5554 C.2     
  44 O44            8.0764     6.9316    -2.8590 O.3     
  45 O45            8.4583     8.1984    -1.0891 O.2     
  46 C46            7.9122     8.1394    -3.6481 C.3     
  47 H47            0.6225    -1.5528     2.3710 H       
  48 H48            1.7386     2.8815     2.7010 H       
  49 H49            2.8431     4.5389     1.1761 H       
  50 H50            4.8105     1.1138     2.8128 H       
  51 H51            5.0090     5.4154     0.4031 H       
  52 H52            4.3091    -2.3523     1.7364 H       
  53 H53            3.0106    -3.2409     2.3256 H       
  54 H54            0.7758     0.1552     5.3146 H       
  55 H55            2.1507    -5.5491     5.1342 H       
  56 H56            3.2254    -5.9931     7.4099 H       
  57 H57            3.9477    -4.5815     6.6005 H       
  58 H58            2.6622    -4.6927     9.1621 H       
  59 H59            3.3695    -3.2803     8.3472 H       
  60 H60            0.3636    -5.2308     8.8692 H       
  61 H61           -0.6738    -4.2256     7.8336 H       
  62 H62           -0.1926    -5.5472     6.0729 H       
  63 H63            0.8569    -6.5462     7.1072 H       
  64 H64            2.0118     0.9492     7.4589 H       
  65 H65           -0.8423    -2.0061     8.6771 H       
  66 H66           -1.4076    -0.6366    10.6410 H       
  67 H67           -0.2695     1.5120    11.0164 H       
  68 H68            1.4362     2.3038     9.4301 H       
  69 H69            7.7570     5.4125     2.4472 H       
  70 H70            8.3553     3.7370     2.5117 H       
  71 H71           10.2144     5.3657     2.1982 H       
  72 H72           10.0621     4.2665     0.8060 H       
  73 H73            9.0042     5.0787    -1.2468 H       
  74 H74            6.5469     5.1255    -0.9978 H       
  75 H75            6.6992     6.2247     0.3944 H       
  76 H76           10.5272     7.6417    -0.6073 H       
  77 H77           11.3029     7.0215     0.8698 H       
  78 H78           10.7652     4.9921    -1.3528 H       
  79 H79           12.9507     5.6457    -2.4620 H       
  80 H80           13.0842     7.1033    -1.3400 H       
  81 H81           13.0953     5.5555     0.6695 H       
  82 H82           12.9619     4.0978    -0.4525 H       
  83 H83            7.0909     8.7298    -3.2420 H       
  84 H84            8.8316     8.7238    -3.6134 H       
  85 H85            7.6909     7.8712    -4.6811 H       
@<TRIPOS>BOND
   1    1    2 1
   2    1    3 2
   3    2   14 1
   4    2    5 1
   5    2   47 1
   6    3    4 1
   7    3    6 1
   8    4    5 2
   9    5   13 1
  10    6    7 1
  11    6   48 1
  12    7    8 ar
  13    7    9 ar
  14    8   12 ar
  15    8   49 1
  16    9   10 ar
  17    9   50 1
  18   10   11 ar
  19   10   39 1
  20   11   12 ar
  21   11   32 1
  22   12   51 1
  23   13   52 1
  24   13   53 1
  25   14   15 ar
  26   14   16 ar
  27   15   19 ar
  28   15   54 1
  29   16   17 ar
  30   17   18 ar
  31   17   20 1
  32   18   19 ar
  33   18   23 1
  34   19   26 1
  35   20   21 1
  36   20   25 1
  37   20   55 1
  38   21   22 1
  39   21   56 1
  40   21   57 1
  41   22   23 1
  42   22   58 1
  43   22   59 1
  44   23   24 1
  45   24   25 1
  46   24   60 1
  47   24   61 1
  48   25   62 1
  49   25   63 1
  50   26   27 ar
  51   26   28 ar
  52   27   31 ar
  53   27   64 1
  54   28   29 ar
  55   28   65 1
  56   29   30 ar
  57   29   66 1
  58   30   31 ar
  59   30   67 1
  60   31   68 1
  61   32   33 1
  62   32   37 1
  63   33   34 1
  64   33   69 1
  65   33   70 1
  66   34   35 1
  67   34   71 1
  68   34   72 1
  69   35   36 1
  70   35   38 1
  71   36   37 1
  72   36   43 1
  73   36   73 1
  74   37   74 1
  75   37   75 1
  76   38   40 1
  77   38   76 1
  78   38   77 1
  79   40   41 1
  80   40   42 1
  81   40   78 1
  82   41   42 1
  83   41   79 1
  84   41   80 1
  85   42   81 1
  86   42   82 1
  87   43   44 1
  88   43   45 2
  89   44   46 1
  90   46   83 1
  91   46   84 1
  92   46   85 1

#	End of record

