#	Name: ASD01911844
#	Creating user name:	WinNT
#	Creation time:	15. 06. 2019 19:58

#	Modifying user name:	WinNT
#	Modification time:	15. 06. 2019 19:58

#	Program:	/corina/corina34_cracker 3.40 0067  02.08.2006

@<TRIPOS>MOLECULE
ASD01911844
  39   41    0    0    0
SMALL
NO_CHARGES


@<TRIPOS>ATOM
   1 C1            -1.0604    -0.5027    -2.0839 C.ar    
   2 C2            -1.0561     0.0557    -0.8092 C.ar    
   3 C3            -1.0049     1.4359    -0.6787 C.ar    
   4 N4            -0.9613     2.2112    -1.7440 N.ar    
   5 C5            -0.9640     1.7142    -2.9653 C.ar    
   6 C6            -1.0131     0.3486    -3.1757 C.ar    
   7 O7            -1.1018    -0.7395     0.2918 O.3     
   8 C8            -1.1522    -2.0846     0.1056 C.ar    
   9 C9            -0.0017    -2.7821    -0.2369 C.ar    
  10 C10           -0.0515    -4.1498    -0.4266 C.ar    
  11 C11           -1.2459    -4.8278    -0.2762 C.ar    
  12 C12           -2.4004    -4.1352     0.0664 C.ar    
  13 C13           -2.3512    -2.7619     0.2630 C.ar    
  14 N14           -3.6093    -4.8213     0.2182 N.am    
  15 C15           -4.7715    -4.2168    -0.0983 C.2     
  16 C16           -6.0580    -4.9039     0.1599 C.ar    
  17 C17           -7.2541    -4.2739    -0.1694 C.ar    
  18 C18           -8.4534    -4.9274     0.0766 C.ar    
  19 C19           -8.4150    -6.1887     0.6435 C.ar    
  20 N20           -6.0588    -6.1184     0.6987 N.ar    
  21 O21           -4.7640    -3.1079    -0.5955 O.2     
  22 C22           -7.1828    -6.7619     0.9487 C.ar    
  23 O23           -7.1379    -7.9984     1.5052 O.3     
  24 C24           -5.8448    -8.5327     1.7953 C.3     
  25 H25           -1.0953    -1.5738    -2.2186 H       
  26 H26           -1.0010     1.8798     0.3059 H       
  27 H27           -0.9277     2.3828    -3.8126 H       
  28 H28           -1.0146    -0.0498    -4.1796 H       
  29 H29            0.9333    -2.2549    -0.3556 H       
  30 H30            0.8449    -4.6898    -0.6934 H       
  31 H31           -1.2821    -5.8968    -0.4254 H       
  32 H32           -3.2472    -2.2211     0.5298 H       
  33 H33           -3.6114    -5.7323     0.5513 H       
  34 H34           -7.2493    -3.2881    -0.6107 H       
  35 H35           -9.3962    -4.4613    -0.1689 H       
  36 H36           -9.3310    -6.7233     0.8476 H       
  37 H37           -5.2665    -8.6049     0.8742 H       
  38 H38           -5.3297    -7.8768     2.4972 H       
  39 H39           -5.9517    -9.5239     2.2359 H       
@<TRIPOS>BOND
   1    1    2 ar
   2    1    6 ar
   3    1   25 1
   4    2    3 ar
   5    2    7 1
   6    3    4 ar
   7    3   26 1
   8    4    5 ar
   9    5    6 ar
  10    5   27 1
  11    6   28 1
  12    7    8 1
  13    8    9 ar
  14    8   13 ar
  15    9   10 ar
  16    9   29 1
  17   10   11 ar
  18   10   30 1
  19   11   12 ar
  20   11   31 1
  21   12   13 ar
  22   12   14 1
  23   13   32 1
  24   14   15 am
  25   14   33 1
  26   15   16 1
  27   15   21 2
  28   16   17 ar
  29   16   20 ar
  30   17   18 ar
  31   17   34 1
  32   18   19 ar
  33   18   35 1
  34   19   22 ar
  35   19   36 1
  36   20   22 ar
  37   22   23 1
  38   23   24 1
  39   24   37 1
  40   24   38 1
  41   24   39 1

#	End of record

