#	Name: ASD09116160
#	Creating user name:	WinNT
#	Creation time:	15. 06. 2019 21:20

#	Modifying user name:	WinNT
#	Modification time:	15. 06. 2019 21:20

#	Program:	/corina/corina34_cracker 3.40 0067  02.08.2006

@<TRIPOS>MOLECULE
ASD09116160
  78   85    0    0    0
SMALL
NO_CHARGES


@<TRIPOS>ATOM
   1 N1            -0.0267     1.4810     0.1065 N.2     
   2 C2            -0.0143     0.0100     0.1938 C.3     
   3 C3             1.2222     1.8594     0.0825 C.2     
   4 N4             2.0839     0.8238     0.1429 N.2     
   5 C5             1.4643    -0.3256     0.2119 C.2     
   6 N6             1.6189     3.1796     0.0037 N.pl3   
   7 C7             2.9746     3.5091     0.0981 C.ar    
   8 C8             3.4698     4.6165    -0.5780 C.ar    
   9 C9             3.8273     2.7322     0.8733 C.ar    
  10 C10            5.1657     3.0669     0.9594 C.ar    
  11 C11            5.6527     4.1583     0.2865 C.ar    
  12 C12            4.8098     4.9410    -0.4834 C.ar    
  13 N13            2.0274    -1.5616     0.2846 N.pl3   
  14 C14           -0.6800    -0.4528     1.4641 C.ar    
  15 C15           -1.3079     0.4698     2.2752 C.ar    
  16 N16           -0.6568    -1.7356     1.7788 N.ar    
  17 C17           -1.2225    -2.1894     2.8750 C.ar    
  18 C18           -1.8686    -1.3267     3.7467 C.ar    
  19 C19           -1.9233     0.0299     3.4539 C.ar    
  20 C20           -1.3386    -3.5986     3.4628 C.3     
  21 C21           -2.8499    -3.9582     3.3044 C.3     
  22 C22           -3.5695    -2.9932     4.2770 C.3     
  23 C23           -2.4097    -2.1591     4.9083 C.3     
  24 C24           -1.2894    -3.2601     4.9981 C.3     
  25 C25           -2.6062     0.9828     4.3633 C.ar    
  26 C26           -1.9574     2.1463     4.7723 C.ar    
  27 C27           -2.5975     3.0294     5.6179 C.ar    
  28 C28           -3.8807     2.7614     6.0594 C.ar    
  29 C29           -4.5294     1.6079     5.6569 C.ar    
  30 C30           -3.9009     0.7205     4.8069 C.ar    
  31 C31            6.0933     2.2174     1.8034 C.3     
  32 C32            6.4911     3.0203     3.0444 C.3     
  33 C33            7.6828     3.9112     2.7543 C.3     
  34 C34            7.3961     5.0487     1.7942 C.3     
  35 C35            7.1206     4.5193     0.3851 C.3     
  36 N36            8.1587     4.4802     4.0222 N.3     
  37 C37            9.3915     5.2633     3.8202 C.3     
  38 C38            9.1196     6.6881     4.3468 C.3     
  39 C39            7.9419     6.4768     5.3343 C.3     
  40 C40            7.1353     5.3606     4.6251 C.3     
  41 H41           -0.5005    -0.4310    -0.6764 H       
  42 H42            0.9572     3.8785    -0.1172 H       
  43 H43            2.8080     5.2236    -1.1779 H       
  44 H44            3.4467     1.8728     1.4052 H       
  45 H45            5.1984     5.7993    -1.0113 H       
  46 H46            2.9929    -1.6552     0.2886 H       
  47 H47            1.4635    -2.3494     0.3324 H       
  48 H48           -1.3244     1.5155     2.0056 H       
  49 H49           -0.6268    -4.3358     3.0913 H       
  50 H50           -3.1788    -3.7836     2.2800 H       
  51 H51           -3.0283    -4.9942     3.5925 H       
  52 H52           -4.2553    -2.3436     3.7332 H       
  53 H53           -4.1010    -3.5526     5.0469 H       
  54 H54           -2.6494    -1.6144     5.8215 H       
  55 H55           -1.5869    -4.1051     5.6190 H       
  56 H56           -0.3267    -2.8486     5.3015 H       
  57 H57           -0.9553     2.3563     4.4285 H       
  58 H58           -2.0955     3.9312     5.9358 H       
  59 H59           -4.3779     3.4553     6.7210 H       
  60 H60           -5.5311     1.4034     6.0049 H       
  61 H61           -4.4082    -0.1798     4.4933 H       
  62 H62            5.5799     1.3049     2.1065 H       
  63 H63            6.9845     1.9662     1.2284 H       
  64 H64            5.6492     3.6385     3.3561 H       
  65 H65            6.7463     2.3317     3.8498 H       
  66 H66            8.4795     3.2970     2.3345 H       
  67 H67            6.5255     5.6028     2.1452 H       
  68 H68            8.2566     5.7172     1.7638 H       
  69 H69            7.7287     3.6336     0.2012 H       
  70 H70            7.3585     5.2895    -0.3486 H       
  71 H71           10.2127     4.8124     4.3774 H       
  72 H72            9.6372     5.3009     2.7589 H       
  73 H73            9.9935     7.0799     4.8674 H       
  74 H74            8.8258     7.3504     3.5326 H       
  75 H75            8.3028     6.1404     6.3062 H       
  76 H76            7.3476     7.3852     5.4333 H       
  77 H77            6.4976     5.7868     3.8507 H       
  78 H78            6.5368     4.8068     5.3484 H       
@<TRIPOS>BOND
   1    1    2 1
   2    1    3 2
   3    2   14 1
   4    2    5 1
   5    2   41 1
   6    3    4 1
   7    3    6 1
   8    4    5 2
   9    5   13 1
  10    6    7 1
  11    6   42 1
  12    7    8 ar
  13    7    9 ar
  14    8   12 ar
  15    8   43 1
  16    9   10 ar
  17    9   44 1
  18   10   11 ar
  19   10   31 1
  20   11   12 ar
  21   11   35 1
  22   12   45 1
  23   13   46 1
  24   13   47 1
  25   14   15 ar
  26   14   16 ar
  27   15   19 ar
  28   15   48 1
  29   16   17 ar
  30   17   18 ar
  31   17   20 1
  32   18   19 ar
  33   18   23 1
  34   19   25 1
  35   20   21 1
  36   20   24 1
  37   20   49 1
  38   21   22 1
  39   21   50 1
  40   21   51 1
  41   22   23 1
  42   22   52 1
  43   22   53 1
  44   23   24 1
  45   23   54 1
  46   24   55 1
  47   24   56 1
  48   25   26 ar
  49   25   30 ar
  50   26   27 ar
  51   26   57 1
  52   27   28 ar
  53   27   58 1
  54   28   29 ar
  55   28   59 1
  56   29   30 ar
  57   29   60 1
  58   30   61 1
  59   31   32 1
  60   31   62 1
  61   31   63 1
  62   32   33 1
  63   32   64 1
  64   32   65 1
  65   33   34 1
  66   33   36 1
  67   33   66 1
  68   34   35 1
  69   34   67 1
  70   34   68 1
  71   35   69 1
  72   35   70 1
  73   36   37 1
  74   36   40 1
  75   37   38 1
  76   37   71 1
  77   37   72 1
  78   38   39 1
  79   38   73 1
  80   38   74 1
  81   39   40 1
  82   39   75 1
  83   39   76 1
  84   40   77 1
  85   40   78 1

#	End of record

