#	Name: ASD01885723
#	Creating user name:	WinNT
#	Creation time:	15. 06. 2019 19:50

#	Modifying user name:	WinNT
#	Modification time:	15. 06. 2019 19:50

#	Program:	/corina/corina34_cracker 3.40 0067  02.08.2006

@<TRIPOS>MOLECULE
ASD01885723
  50   53    0    0    0
SMALL
NO_CHARGES


@<TRIPOS>ATOM
   1 C1            -0.0160     1.3290     0.0093 C.ar    
   2 C2             1.2006     2.0571     0.0016 C.ar    
   3 C3             2.4279     1.3474    -0.0134 C.ar    
   4 C4             2.3762    -0.0398    -0.0200 C.ar    
   5 C5             1.1334    -0.6832    -0.0116 C.ar    
   6 N6             0.0021    -0.0041     0.0020 N.ar    
   7 C7            -1.2256     3.3958     0.0258 C.ar    
   8 C8            -0.0270     4.1070     0.0226 C.ar    
   9 C9             1.1708     3.4578     0.0086 C.ar    
  10 C10            3.7240     2.0634    -0.0225 C.ar    
  11 C11            1.0867    -2.1653    -0.0196 C.2     
  12 C12           -2.5327     4.1456     0.0355 C.3     
  13 C13           -1.2343     2.0355     0.0189 C.ar    
  14 N14           -0.1011    -2.8021    -0.0131 N.am    
  15 O15            2.1192    -2.8056    -0.0321 O.2     
  16 C16            4.7205     1.7183     0.8910 C.ar    
  17 C17            5.9261     2.3878     0.8782 C.ar    
  18 C18            6.1485     3.4022    -0.0397 C.ar    
  19 C19            5.1617     3.7487    -0.9491 C.ar    
  20 C20            3.9548     3.0813    -0.9482 C.ar    
  21 F21            7.3309     4.0557    -0.0476 F       
  22 N22           -2.9513     4.3822     1.4236 N.3     
  23 C23           -4.1021     5.3199     1.4802 C.3     
  24 C24           -4.7523     5.0552     2.8552 C.3     
  25 C25           -4.3339     3.6176     3.2263 C.3     
  26 C26           -3.4661     3.1346     2.0444 C.3     
  27 C27           -3.6231     6.7459     1.3911 C.2     
  28 N28           -4.5117     7.7587     1.4244 N.am    
  29 O29           -2.4378     6.9822     1.2894 O.2     
  30 H30            3.2882    -0.6182    -0.0318 H       
  31 H31           -0.0480     5.1868     0.0271 H       
  32 H32            2.0928     4.0202     0.0031 H       
  33 H33           -2.4073     5.1010    -0.4740 H       
  34 H34           -3.2930     3.5570    -0.4780 H       
  35 H35           -2.1718     1.4994     0.0212 H       
  36 H36           -0.9254    -2.2910    -0.0031 H       
  37 H37           -0.1316    -3.7716    -0.0184 H       
  38 H38            4.5479     0.9285     1.6071 H       
  39 H39            6.6982     2.1215     1.5849 H       
  40 H40            5.3396     4.5400    -1.6622 H       
  41 H41            3.1866     3.3517    -1.6575 H       
  42 H42           -4.8080     5.1042     0.6781 H       
  43 H43           -4.3755     5.7620     3.5945 H       
  44 H44           -5.8374     5.1264     2.7808 H       
  45 H45           -3.7517     3.6187     4.1478 H       
  46 H46           -5.2136     2.9831     3.3342 H       
  47 H47           -4.0724     2.5769     1.3306 H       
  48 H48           -2.6407     2.5206     2.4048 H       
  49 H49           -5.4596     7.5697     1.5057 H       
  50 H50           -4.2033     8.6766     1.3670 H       
@<TRIPOS>BOND
   1    1    6 ar
   2    1    2 ar
   3    1   13 ar
   4    2    3 ar
   5    2    9 ar
   6    3   10 1
   7    3    4 ar
   8    4    5 ar
   9    4   30 1
  10    5   11 1
  11    5    6 ar
  12    7   12 1
  13    7   13 ar
  14    7    8 ar
  15    8    9 ar
  16    8   31 1
  17    9   32 1
  18   10   16 ar
  19   10   20 ar
  20   11   14 am
  21   11   15 2
  22   12   22 1
  23   12   33 1
  24   12   34 1
  25   13   35 1
  26   14   36 1
  27   14   37 1
  28   16   17 ar
  29   16   38 1
  30   17   18 ar
  31   17   39 1
  32   18   19 ar
  33   18   21 1
  34   19   20 ar
  35   19   40 1
  36   20   41 1
  37   22   23 1
  38   22   26 1
  39   23   24 1
  40   23   27 1
  41   23   42 1
  42   24   25 1
  43   24   43 1
  44   24   44 1
  45   25   26 1
  46   25   45 1
  47   25   46 1
  48   26   47 1
  49   26   48 1
  50   27   28 am
  51   27   29 2
  52   28   49 1
  53   28   50 1

#	End of record

