#	Name: ASD04590498
#	Creating user name:	WinNT
#	Creation time:	15. 06. 2019 20:50

#	Modifying user name:	WinNT
#	Modification time:	15. 06. 2019 20:50

#	Program:	/corina/corina34_cracker 3.40 0067  02.08.2006

@<TRIPOS>MOLECULE
ASD04590498
  62   67    0    0    0
SMALL
NO_CHARGES


@<TRIPOS>ATOM
   1 C1             1.0516     1.0319     4.0441 C.ar    
   2 C2             1.0003    -0.3320     3.7951 C.ar    
   3 C3             3.1247    -0.2157     2.6842 C.ar    
   4 C4             3.1712     1.1665     2.9390 C.ar    
   5 C5             2.1298     1.7801     3.6198 C.ar    
   6 N6             4.2579    -0.5379     2.0134 N.2     
   7 C7             4.9882     0.5372     1.8407 C.2     
   8 N8             4.3589     1.6189     2.3959 N.pl3   
   9 C9             6.2939     0.5757     1.1501 C.2     
  10 C10            6.9601    -0.5283     0.5695 C.2     
  11 C11            8.1231    -0.0769     0.0392 C.2     
  12 N12            8.1958     1.2600     0.2719 N.pl3   
  13 N13            7.0400     1.6465     0.9620 N.2     
  14 N14            6.4997    -1.8545     0.5469 N.am    
  15 C15            7.2389    -2.8145    -0.0435 C.2     
  16 O16            8.3046    -2.5320    -0.5566 O.2     
  17 C17            2.0239    -0.9588     3.1217 C.ar    
  18 C18            6.7549    -4.2087    -0.0674 C.ar    
  19 C19            5.6025    -4.5637     0.6337 C.ar    
  20 C20           -0.1857    -1.1337     4.2661 C.3     
  21 N21           -1.2134    -1.1505     3.2167 N.3     
  22 C22           -2.2789    -2.1111     3.5380 C.3     
  23 C23           -0.6216    -1.4487     1.9044 C.3     
  24 C24           -1.7150    -1.3973     0.8340 C.3     
  25 O25           -2.7565    -2.3146     1.1792 O.3     
  26 C26           -3.3557    -2.0531     2.4512 C.3     
  27 C27            5.1543    -5.8684     0.6076 C.ar    
  28 C28            5.8419    -6.8314    -0.1117 C.ar    
  29 C29            6.9848    -6.4984    -0.8114 C.ar    
  30 C30            7.4495    -5.1867    -0.8021 C.ar    
  31 C31            8.6754    -4.8248    -1.5520 C.ar    
  32 C32            9.8729    -5.4932    -1.3001 C.ar    
  33 C33           11.0110    -5.1521    -2.0019 C.ar    
  34 C34           10.9656    -4.1490    -2.9534 C.ar    
  35 C35            9.7805    -3.4821    -3.2074 C.ar    
  36 C36            8.6345    -3.8186    -2.5163 C.ar    
  37 H37            0.2396     1.5119     4.5699 H       
  38 H38            2.1631     2.8415     3.8168 H       
  39 H39            4.6852     2.5323     2.4056 H       
  40 H40            8.8611    -0.6738    -0.4761 H       
  41 H41            8.9210     1.8457     0.0036 H       
  42 H42            5.6496    -2.0799     0.9561 H       
  43 H43            1.9773    -2.0210     2.9321 H       
  44 H44            5.0615    -3.8178     1.1971 H       
  45 H45            0.1289    -2.1546     4.4830 H       
  46 H46           -0.5954    -0.6803     5.1687 H       
  47 H47           -1.8609    -3.1167     3.5830 H       
  48 H48           -2.7203    -1.8563     4.5016 H       
  49 H49            0.1468    -0.7103     1.6754 H       
  50 H50           -0.1771    -2.4437     1.9232 H       
  51 H51           -2.1226    -0.3880     0.7781 H       
  52 H52           -1.2920    -1.6737    -0.1319 H       
  53 H53           -4.1193    -2.8037     2.6550 H       
  54 H54           -3.8110    -1.0628     2.4424 H       
  55 H55            4.2619    -6.1403     1.1518 H       
  56 H56            5.4821    -7.8496    -0.1252 H       
  57 H57            7.5159    -7.2554    -1.3694 H       
  58 H58            9.9097    -6.2760    -0.5569 H       
  59 H59           11.9391    -5.6691    -1.8076 H       
  60 H60           11.8590    -3.8853    -3.5000 H       
  61 H61            9.7513    -2.6993    -3.9509 H       
  62 H62            7.7099    -3.2972    -2.7154 H       
@<TRIPOS>BOND
   1    1    2 ar
   2    1    5 ar
   3    1   37 1
   4    2   17 ar
   5    2   20 1
   6    3    4 ar
   7    3    6 1
   8    3   17 ar
   9    4    5 ar
  10    4    8 1
  11    5   38 1
  12    6    7 2
  13    7    8 1
  14    7    9 1
  15    8   39 1
  16    9   10 1
  17    9   13 2
  18   10   11 2
  19   10   14 1
  20   11   12 1
  21   11   40 1
  22   12   13 1
  23   12   41 1
  24   14   15 am
  25   14   42 1
  26   15   16 2
  27   15   18 1
  28   17   43 1
  29   18   19 ar
  30   18   30 ar
  31   19   27 ar
  32   19   44 1
  33   20   21 1
  34   20   45 1
  35   20   46 1
  36   21   22 1
  37   21   23 1
  38   22   26 1
  39   22   47 1
  40   22   48 1
  41   23   24 1
  42   23   49 1
  43   23   50 1
  44   24   25 1
  45   24   51 1
  46   24   52 1
  47   25   26 1
  48   26   53 1
  49   26   54 1
  50   27   28 ar
  51   27   55 1
  52   28   29 ar
  53   28   56 1
  54   29   30 ar
  55   29   57 1
  56   30   31 1
  57   31   32 ar
  58   31   36 ar
  59   32   33 ar
  60   32   58 1
  61   33   34 ar
  62   33   59 1
  63   34   35 ar
  64   34   60 1
  65   35   36 ar
  66   35   61 1
  67   36   62 1

#	End of record

