#	Name: ASD01912028
#	Creating user name:	WinNT
#	Creation time:	15. 06. 2019 19:58

#	Modifying user name:	WinNT
#	Modification time:	15. 06. 2019 19:58

#	Program:	/corina/corina34_cracker 3.40 0067  02.08.2006

@<TRIPOS>MOLECULE
ASD01912028
  39   42    0    0    0
SMALL
NO_CHARGES


@<TRIPOS>ATOM
   1 C1             0.1636     1.0870     0.8400 C.ar    
   2 C2             0.0027    -0.0051     0.0023 C.ar    
   3 C3             1.0255    -0.3925    -0.8441 C.ar    
   4 C4             2.2189     0.3111    -0.8582 C.ar    
   5 C5             2.3845     1.4154    -0.0127 C.ar    
   6 C6             1.3455     1.7971     0.8365 C.ar    
   7 C7             3.6546     2.1729    -0.0199 C.ar    
   8 N8             4.8213     1.5400     0.0662 N.ar    
   9 C9             5.9599     2.2150     0.0601 C.ar    
  10 N10            5.9944     3.5382    -0.0308 N.ar    
  11 C11            4.8837     4.2463    -0.1201 C.ar    
  12 C12            3.6517     3.5819    -0.1241 C.ar    
  13 C13            2.4226     4.3105    -0.2193 C.1     
  14 N14            1.4475     4.8885    -0.2949 N.1     
  15 N15            7.1523     1.5183     0.1520 N.pl3   
  16 C16            8.3518     2.2002     0.1477 C.2     
  17 O17            9.5647     1.6260     0.2318 O.3     
  18 C18           10.4983     2.6043     0.1970 C.ar    
  19 C19            9.7985     3.8153     0.0870 C.ar    
  20 N20            8.4750     3.4991     0.0555 N.2     
  21 C21           11.8829     2.6107     0.2467 C.ar    
  22 C22           12.5679     3.8074     0.1877 C.ar    
  23 C23           11.8802     5.0065     0.0793 C.ar    
  24 C24           10.5036     5.0183     0.0283 C.ar    
  25 Cl25          -1.4897    -0.8917     0.0160 Cl      
  26 O26            3.2240    -0.0685    -1.6879 O.3     
  27 C27            2.9835    -1.2043    -2.5211 C.3     
  28 H28           -0.6416     1.3858     1.4948 H       
  29 H29            0.8939    -1.2446    -1.4946 H       
  30 H30            1.4669     2.6479     1.4906 H       
  31 H31            4.9253     5.3230    -0.1937 H       
  32 H32            7.1447     0.5507     0.2195 H       
  33 H33           12.4253     1.6807     0.3318 H       
  34 H34           13.6472     3.8099     0.2266 H       
  35 H35           12.4270     5.9368     0.0347 H       
  36 H36            9.9722     5.9547    -0.0558 H       
  37 H37            2.1289    -1.0059    -3.1680 H       
  38 H38            3.8644    -1.3994    -3.1326 H       
  39 H39            2.7736    -2.0738    -1.8983 H       
@<TRIPOS>BOND
   1    1    2 ar
   2    1    6 ar
   3    1   28 1
   4    2    3 ar
   5    2   25 1
   6    3    4 ar
   7    3   29 1
   8    4    5 ar
   9    4   26 1
  10    5    6 ar
  11    5    7 1
  12    6   30 1
  13    7    8 ar
  14    7   12 ar
  15    8    9 ar
  16    9   10 ar
  17    9   15 1
  18   10   11 ar
  19   11   12 ar
  20   11   31 1
  21   12   13 1
  22   13   14 3
  23   15   16 1
  24   15   32 1
  25   16   17 1
  26   16   20 2
  27   17   18 1
  28   18   19 ar
  29   18   21 ar
  30   19   20 1
  31   19   24 ar
  32   21   22 ar
  33   21   33 1
  34   22   23 ar
  35   22   34 1
  36   23   24 ar
  37   23   35 1
  38   24   36 1
  39   26   27 1
  40   27   37 1
  41   27   38 1
  42   27   39 1

#	End of record

