#	Name: ASD03090316
#	Creating user name:	WinNT
#	Creation time:	15. 06. 2019 20:28

#	Modifying user name:	WinNT
#	Modification time:	15. 06. 2019 20:28

#	Program:	/corina/corina34_cracker 3.40 0067  02.08.2006

@<TRIPOS>MOLECULE
ASD03090316
  43   46    0    0    0
SMALL
NO_CHARGES


@<TRIPOS>ATOM
   1 C1             0.1957     1.0391     0.8784 C.ar    
   2 N2            -0.9177     1.4663     1.4427 N.ar    
   3 C3            -2.0644     0.8395     1.2802 C.ar    
   4 C4            -2.1389    -0.3118     0.4960 C.ar    
   5 C5            -0.9749    -0.7895    -0.1156 C.ar    
   6 C6             0.2039    -0.0911     0.0815 C.ar    
   7 C7            -3.4274    -1.0163     0.3145 C.2     
   8 N8            -6.9336    -1.2503     0.4078 N.pl3   
   9 C9            -7.4331    -0.0696     0.9671 C.ar    
  10 C10           -8.6612     0.4306     0.5539 C.ar    
  11 C11           -9.1524     1.5966     1.1076 C.ar    
  12 C12           -8.4214     2.2670     2.0739 C.ar    
  13 C13           -7.1968     1.7702     2.4874 C.ar    
  14 C14           -6.7043     0.6014     1.9407 C.ar    
  15 N15           -4.6242    -0.5163     0.5491 N.2     
  16 C16           -5.5556    -1.4315     0.2752 C.2     
  17 N17           -4.9676    -2.5303    -0.1386 N.2     
  18 N18           -3.5852    -2.2842    -0.1269 N.pl3   
  19 C19           -2.5239    -3.2190    -0.5093 C.3     
  20 C20           -2.2812    -3.1257    -2.0171 C.3     
  21 O21           -1.2460    -4.0375    -2.3902 O.3     
  22 F22           -8.9036     3.4077     2.6139 F       
  23 C23            1.4782     1.7985     1.1009 C.3     
  24 C24            2.3977     1.3182     2.2255 C.3     
  25 C25            2.7892     1.0848     0.7650 C.3     
  26 H26           -2.9549     1.2200     1.7585 H       
  27 H27           -0.9963    -1.6779    -0.7294 H       
  28 H28            1.1220    -0.4304    -0.3750 H       
  29 H29           -7.5446    -1.9432     0.1120 H       
  30 H30           -9.2314    -0.0917    -0.2000 H       
  31 H31          -10.1071     1.9861     0.7864 H       
  32 H32           -6.6283     2.2949     3.2410 H       
  33 H33           -5.7493     0.2141     2.2637 H       
  34 H34           -1.6071    -2.9652     0.0227 H       
  35 H35           -2.8242    -4.2347    -0.2518 H       
  36 H36           -3.1980    -3.3795    -2.5491 H       
  37 H37           -1.9809    -2.1100    -2.2746 H       
  38 H38           -1.0387    -4.0320    -3.3347 H       
  39 H39            1.4273     2.8715     0.9161 H       
  40 H40            2.9519     2.0751     2.7804 H       
  41 H41            2.0749     0.4529     2.8045 H       
  42 H42            2.7241     0.0660     0.3831 H       
  43 H43            3.6011     1.6882     0.3590 H       
@<TRIPOS>BOND
   1    1    2 ar
   2    1   23 1
   3    1    6 ar
   4    2    3 ar
   5    3    4 ar
   6    3   26 1
   7    4    5 ar
   8    4    7 1
   9    5    6 ar
  10    5   27 1
  11    6   28 1
  12    7   15 2
  13    7   18 1
  14    8    9 1
  15    8   16 1
  16    8   29 1
  17    9   10 ar
  18    9   14 ar
  19   10   11 ar
  20   10   30 1
  21   11   12 ar
  22   11   31 1
  23   12   13 ar
  24   12   22 1
  25   13   14 ar
  26   13   32 1
  27   14   33 1
  28   15   16 1
  29   16   17 2
  30   17   18 1
  31   18   19 1
  32   19   20 1
  33   19   34 1
  34   19   35 1
  35   20   21 1
  36   20   36 1
  37   20   37 1
  38   21   38 1
  39   23   24 1
  40   23   25 1
  41   23   39 1
  42   24   25 1
  43   24   40 1
  44   24   41 1
  45   25   42 1
  46   25   43 1

#	End of record

