#	Name: ASD00450042
#	Creating user name:	WinNT
#	Creation time:	15. 06. 2019 18:36

#	Modifying user name:	WinNT
#	Modification time:	15. 06. 2019 18:36

#	Program:	/corina/corina34_cracker 3.40 0067  02.08.2006

@<TRIPOS>MOLECULE
ASD00450042
  47   49    0    0    0
SMALL
NO_CHARGES


@<TRIPOS>ATOM
   1 C1             0.5296     1.6263     0.0008 C.ar    
   2 C2             0.2260     0.2703     0.1975 C.ar    
   3 C3             1.2409    -0.6282     0.4786 C.ar    
   4 C4             2.5539    -0.1937     0.5663 C.ar    
   5 C5             2.8658     1.1415     0.3742 C.ar    
   6 C6             1.8642     2.0580     0.0916 C.ar    
   7 C7            -0.5401     2.5876    -0.3043 C.2     
   8 O8            -1.1154     3.1644     0.5992 O.2     
   9 N9            -0.8834     2.8298    -1.5849 N.am    
  10 N10            2.1786     3.3974    -0.1013 N.pl3   
  11 C11            3.3531     3.9260     0.4450 C.ar    
  12 C12            3.9217     5.0719    -0.1011 C.ar    
  13 C13            3.9506     3.3112     1.5372 C.ar    
  14 C14            5.1099     3.8355     2.0749 C.ar    
  15 C15            5.6768     4.9722     1.5271 C.ar    
  16 C16            5.0824     5.5914     0.4422 C.ar    
  17 F17            3.5365    -1.0792     0.8417 F       
  18 F18            3.3412     5.6762    -1.1609 F       
  19 I19            7.4348     5.7628     2.3477 I       
  20 O20           -1.0581    -0.1586     0.1128 O.3     
  21 C21           -1.2954    -1.4907     0.2380 C.ar    
  22 C22           -1.3027    -2.0788     1.4930 C.ar    
  23 C23           -1.5454    -3.4400     1.6172 C.ar    
  24 C24           -1.5362    -2.2624    -0.8908 C.ar    
  25 C25           -1.7776    -3.6170    -0.7652 C.ar    
  26 N26           -1.5542    -4.0364     2.8801 N.am    
  27 C27           -1.7801    -4.2082     0.4836 C.ar    
  28 S28           -2.8335    -3.7914     3.9027 S.o2    
  29 C29           -4.2339    -4.5955     3.0764 C.3     
  30 O30           -2.4786    -4.4979     5.0835 O.2     
  31 O31           -3.0057    -2.3809     3.9168 O.2     
  32 H32            1.0085    -1.6719     0.6305 H       
  33 H33            3.8921     1.4703     0.4450 H       
  34 H34           -0.4248     2.3699    -2.3053 H       
  35 H35           -1.5892     3.4641    -1.7861 H       
  36 H36            1.5838     3.9661    -0.6149 H       
  37 H37            3.5090     2.4239     1.9662 H       
  38 H38            5.5744     3.3573     2.9247 H       
  39 H39            5.5251     6.4811     0.0193 H       
  40 H40           -1.1197    -1.4794     2.3725 H       
  41 H41           -1.5352    -1.8031    -1.8683 H       
  42 H42           -1.9646    -4.2149    -1.6449 H       
  43 H43           -0.8109    -4.5941     3.1583 H       
  44 H44           -1.9690    -5.2673     0.5789 H       
  45 H45           -4.0545    -5.6691     3.0194 H       
  46 H46           -5.1460    -4.4091     3.6433 H       
  47 H47           -4.3427    -4.1914     2.0700 H       
@<TRIPOS>BOND
   1    1    2 ar
   2    1    6 ar
   3    1    7 1
   4    2    3 ar
   5    2   20 1
   6    3    4 ar
   7    3   32 1
   8    4    5 ar
   9    4   17 1
  10    5    6 ar
  11    5   33 1
  12    6   10 1
  13    7    8 2
  14    7    9 am
  15    9   34 1
  16    9   35 1
  17   10   11 1
  18   10   36 1
  19   11   13 ar
  20   11   12 ar
  21   12   16 ar
  22   12   18 1
  23   13   14 ar
  24   13   37 1
  25   14   15 ar
  26   14   38 1
  27   15   16 ar
  28   15   19 1
  29   16   39 1
  30   20   21 1
  31   21   22 ar
  32   21   24 ar
  33   22   23 ar
  34   22   40 1
  35   23   27 ar
  36   23   26 1
  37   24   25 ar
  38   24   41 1
  39   25   27 ar
  40   25   42 1
  41   26   28 am
  42   26   43 1
  43   27   44 1
  44   28   29 1
  45   28   30 2
  46   28   31 2
  47   29   45 1
  48   29   46 1
  49   29   47 1

#	End of record

