#	Name: ASD05723018
#	Creating user name:	WinNT
#	Creation time:	15. 06. 2019 21:02

#	Modifying user name:	WinNT
#	Modification time:	15. 06. 2019 21:02

#	Program:	/corina/corina34_cracker 3.40 0067  02.08.2006

@<TRIPOS>MOLECULE
ASD05723018
  39   42    0    0    0
SMALL
NO_CHARGES


@<TRIPOS>ATOM
   1 C1            -0.0314     1.1897    -0.2663 C.ar    
   2 C2             0.0150    -0.2150    -0.1907 C.ar    
   3 C3            -1.1722    -0.9390    -0.1672 C.ar    
   4 C4            -2.3815    -0.2819    -0.2182 C.ar    
   5 C5            -2.4315     1.1080    -0.2930 C.ar    
   6 C6            -1.2655     1.8461    -0.3120 C.ar    
   7 C7             1.3570     1.6469    -0.2729 C.2     
   8 C8             2.1389     0.5399    -0.2038 C.2     
   9 N9             1.3445    -0.5824    -0.1541 N.pl3   
  10 O10           -3.6342     1.7407    -0.3426 O.3     
  11 C11            3.6160     0.5398    -0.1850 C.2     
  12 C12            4.4729    -0.3093     0.6443 C.ar    
  13 N13            4.4040     1.2978    -0.9135 N.2     
  14 N14            5.7416     1.0132    -0.6191 N.pl3   
  15 C15            5.8000     0.0353     0.3291 C.ar    
  16 C16            6.9004     1.6623    -1.2374 C.3     
  17 C17            6.8734     1.4223    -2.7482 C.3     
  18 C18            6.8516     3.1659    -0.9588 C.3     
  19 N19            6.7908    -0.5982     0.9568 N.ar    
  20 C20            6.5332    -1.5260     1.8521 C.ar    
  21 N21            5.3029    -1.8809     2.1783 N.ar    
  22 C22            4.2487    -1.3092     1.6046 C.ar    
  23 N23            2.9645    -1.6845     1.9496 N.pl3   
  24 H24           -1.1458    -2.0172    -0.1094 H       
  25 H25           -3.2999    -0.8498    -0.2004 H       
  26 H26           -1.3056     2.9238    -0.3697 H       
  27 H27            1.6960     2.6711    -0.3238 H       
  28 H28            1.6701    -1.4946    -0.1010 H       
  29 H29           -3.9937     1.9707     0.5251 H       
  30 H30            7.8165     1.2449    -0.8195 H       
  31 H31            7.7356     1.9052    -3.2082 H       
  32 H32            6.9082     0.3511    -2.9467 H       
  33 H33            5.9573     1.8397    -3.1661 H       
  34 H34            6.8707     3.3368     0.1175 H       
  35 H35            7.7137     3.6488    -1.4188 H       
  36 H36            5.9355     3.5833    -1.3767 H       
  37 H37            7.3610    -2.0183     2.3407 H       
  38 H38            2.8208    -2.4628     2.5104 H       
  39 H39            2.2067    -1.1696     1.6310 H       
@<TRIPOS>BOND
   1    1    2 ar
   2    1    7 1
   3    1    6 ar
   4    2    3 ar
   5    2    9 1
   6    3    4 ar
   7    3   24 1
   8    4    5 ar
   9    4   25 1
  10    5    6 ar
  11    5   10 1
  12    6   26 1
  13    7    8 2
  14    7   27 1
  15    8    9 1
  16    8   11 1
  17    9   28 1
  18   10   29 1
  19   11   12 1
  20   11   13 2
  21   12   15 ar
  22   12   22 ar
  23   13   14 1
  24   14   15 1
  25   14   16 1
  26   15   19 ar
  27   16   17 1
  28   16   18 1
  29   16   30 1
  30   17   31 1
  31   17   32 1
  32   17   33 1
  33   18   34 1
  34   18   35 1
  35   18   36 1
  36   19   20 ar
  37   20   21 ar
  38   20   37 1
  39   21   22 ar
  40   22   23 1
  41   23   38 1
  42   23   39 1

#	End of record

