#	Name: ASD01813270
#	Creating user name:	WinNT
#	Creation time:	15. 06. 2019 19:30

#	Modifying user name:	WinNT
#	Modification time:	15. 06. 2019 19:30

#	Program:	/corina/corina34_cracker 3.40 0067  02.08.2006

@<TRIPOS>MOLECULE
ASD01813270
  57   60    0    0    0
SMALL
NO_CHARGES


@<TRIPOS>ATOM
   1 C1            -0.0178     1.4608     0.0101 C.3     
   2 N2             0.0021    -0.0041     0.0020 N.am    
   3 C3             0.6044    -0.6754     1.0035 C.2     
   4 O4             1.1311    -0.0654     1.9135 O.2     
   5 C5             0.6244    -2.1537     0.9954 C.ar    
   6 C6             0.0256    -2.8570    -0.0509 C.ar    
   7 C7             0.0482    -4.2364    -0.0527 C.ar    
   8 C8             0.6624    -4.9226     0.9799 C.ar    
   9 C9             0.6829    -6.4294     0.9716 C.3     
  10 N10            1.8823    -6.8977     0.2728 N.pl3   
  11 C11            1.9311    -7.2335    -1.0392 C.2     
  12 C12            3.1948    -7.6262    -1.3678 C.2     
  13 C13            3.6631    -8.0672    -2.6886 C.2     
  14 O14            4.8252    -8.3919    -2.8448 O.2     
  15 N15            2.8054    -8.1121    -3.7273 N.am    
  16 C16            3.2724    -8.5518    -5.0444 C.3     
  17 H17            4.2988    -8.2178    -5.1961 H       
  18 C18            3.2163   -10.0788    -5.1217 C.3     
  19 C19            3.7040   -10.5381    -6.4973 C.3     
  20 C20            2.8071    -9.9392    -7.5825 C.3     
  21 C21            2.8632    -8.4122    -7.5052 C.3     
  22 C22            2.3755    -7.9529    -6.1297 C.3     
  23 H23            1.3491    -8.2869    -5.9779 H       
  24 O24            2.4279    -6.5267    -6.0574 O.3     
  25 C25            3.9988    -7.5206    -0.1362 C.ar    
  26 C26            5.3343    -7.7740     0.1733 C.ar    
  27 F27            6.1805    -8.2179    -0.7817 F       
  28 C28            5.7872    -7.5684     1.4608 C.ar    
  29 C29            4.9201    -7.1123     2.4425 C.ar    
  30 C30            3.5979    -6.8582     2.1491 C.ar    
  31 C31            3.1227    -7.0533     0.8561 C.ar    
  32 C32            1.2583    -4.2314     2.0199 C.ar    
  33 C33            1.2473    -2.8519     2.0311 C.ar    
  34 H34            1.0048     1.8381     0.0023 H       
  35 H35           -0.5450     1.8219    -0.8730 H       
  36 H36           -0.5280     1.8123     0.9069 H       
  37 H37           -0.4183    -0.4908    -0.7241 H       
  38 H38           -0.4548    -2.3226    -0.8572 H       
  39 H39           -0.4148    -4.7819    -0.8617 H       
  40 H40            0.6926    -6.7983     1.9972 H       
  41 H41           -0.2045    -6.8020     0.4599 H       
  42 H42            1.0950    -7.1957    -1.7217 H       
  43 H43            1.8789    -7.8532    -3.6028 H       
  44 H44            3.8553   -10.5055    -4.3486 H       
  45 H45            2.1899   -10.4128    -4.9700 H       
  46 H46            4.7304   -10.2041    -6.6490 H       
  47 H47            3.6641   -11.6260    -6.5524 H       
  48 H48            3.1546   -10.2664    -8.5625 H       
  49 H49            1.7807   -10.2732    -7.4308 H       
  50 H50            3.8896    -8.0782    -7.6569 H       
  51 H51            2.2243    -7.9855    -8.2783 H       
  52 H52            1.8816    -6.0791    -6.7180 H       
  53 H53            6.8209    -7.7638     1.7049 H       
  54 H54            5.2846    -6.9551     3.4468 H       
  55 H55            2.9317    -6.5036     2.9217 H       
  56 H56            1.7364    -4.7730     2.8227 H       
  57 H57            1.7165    -2.3135     2.8413 H       
@<TRIPOS>BOND
   1    1    2 1
   2    1   34 1
   3    1   35 1
   4    1   36 1
   5    2    3 am
   6    2   37 1
   7    3    4 2
   8    3    5 1
   9    5   33 ar
  10    5    6 ar
  11    6    7 ar
  12    6   38 1
  13    7    8 ar
  14    7   39 1
  15    8    9 1
  16    8   32 ar
  17    9   10 1
  18    9   40 1
  19    9   41 1
  20   10   31 1
  21   10   11 1
  22   11   12 2
  23   11   42 1
  24   12   13 1
  25   12   25 1
  26   13   14 2
  27   13   15 am
  28   15   16 1
  29   15   43 1
  30   16   17 1
  31   16   22 1
  32   16   18 1
  33   18   19 1
  34   18   44 1
  35   18   45 1
  36   19   20 1
  37   19   46 1
  38   19   47 1
  39   20   21 1
  40   20   48 1
  41   20   49 1
  42   21   22 1
  43   21   50 1
  44   21   51 1
  45   22   23 1
  46   22   24 1
  47   24   52 1
  48   25   31 ar
  49   25   26 ar
  50   26   27 1
  51   26   28 ar
  52   28   29 ar
  53   28   53 1
  54   29   30 ar
  55   29   54 1
  56   30   31 ar
  57   30   55 1
  58   32   33 ar
  59   32   56 1
  60   33   57 1

#	End of record

