#	Name: ASD01813468
#	Creating user name:	WinNT
#	Creation time:	15. 06. 2019 19:30

#	Modifying user name:	WinNT
#	Modification time:	15. 06. 2019 19:30

#	Program:	/corina/corina34_cracker 3.40 0067  02.08.2006

@<TRIPOS>MOLECULE
ASD01813468
  46   50    0    0    0
SMALL
NO_CHARGES


@<TRIPOS>ATOM
   1 C1            -0.0168     1.3834    -0.0464 C.ar    
   2 C2             0.0020    -0.0038    -0.0534 C.ar    
   3 C3             1.1976    -0.6920    -0.0501 C.ar    
   4 C4             2.4035     0.0084    -0.0395 C.ar    
   5 C5             2.3796     1.4130    -0.0324 C.ar    
   6 C6             1.1627     2.0947    -0.0358 C.ar    
   7 N7             3.6056    -0.6668    -0.0350 N.pl3   
   8 C8             4.7891    -0.0410    -0.0235 C.2     
   9 C9             4.8932     1.3356    -0.0153 C.2     
  10 C10            3.6619     2.1417    -0.0212 C.2     
  11 O11            3.7002     3.3596    -0.0146 O.2     
  12 C12            6.2115     1.9851    -0.0017 C.2     
  13 O13            6.3001     3.3303     0.0063 O.3     
  14 O14            7.2221     1.3094     0.0023 O.2     
  15 C15            3.5871    -2.1316    -0.0427 C.3     
  16 C16            3.4445    -2.6248    -1.4595 C.ar    
  17 N17            2.2427    -2.7288    -1.9927 N.ar    
  18 C18            2.0637    -3.1543    -3.2265 C.ar    
  19 C19            3.1536    -3.5134    -4.0180 C.ar    
  20 C20            4.4411    -3.4141    -3.4809 C.ar    
  21 C21            4.5767    -2.9558    -2.1821 C.ar    
  22 C22            2.9513    -3.9929    -5.4056 C.2     
  23 F23            1.2003    -2.0430    -0.0566 F       
  24 C24            2.0002    -5.0479    -5.7465 C.ar    
  25 C25            1.9935    -5.3197    -7.1152 C.ar    
  26 S26            3.1475    -4.2792    -7.9392 S.3     
  27 C27            3.6174    -3.4938    -6.4446 C.2     
  28 C28            1.1395    -5.7789    -4.9023 C.ar    
  29 C29            0.3161    -6.7343    -5.4151 C.ar    
  30 C30            0.3108    -7.0039    -6.7768 C.ar    
  31 C31            1.1397    -6.3055    -7.6222 C.ar    
  32 H32           -0.9608     1.9082    -0.0536 H       
  33 H33           -0.9293    -0.5507    -0.0613 H       
  34 H34            1.1454     3.1745    -0.0307 H       
  35 H35            5.6925    -0.6328    -0.0202 H       
  36 H36            7.1887     3.7117     0.0151 H       
  37 H37            4.5175    -2.5090     0.3815 H       
  38 H38            2.7459    -2.4875     0.5522 H       
  39 H39            1.0637    -3.2259    -3.6282 H       
  40 H40            5.3077    -3.6843    -4.0661 H       
  41 H41            5.5555    -2.8658    -1.7346 H       
  42 H42            4.3564    -2.7093    -6.3747 H       
  43 H43            1.1336    -5.5797    -3.8409 H       
  44 H44           -0.3379    -7.2871    -4.7571 H       
  45 H45           -0.3461    -7.7642    -7.1729 H       
  46 H46            1.1320    -6.5184    -8.6810 H       
@<TRIPOS>BOND
   1    1    2 ar
   2    1    6 ar
   3    1   32 1
   4    2    3 ar
   5    2   33 1
   6    3    4 ar
   7    3   23 1
   8    4    5 ar
   9    4    7 1
  10    5    6 ar
  11    5   10 1
  12    6   34 1
  13    7    8 1
  14    7   15 1
  15    8    9 2
  16    8   35 1
  17    9   10 1
  18    9   12 1
  19   10   11 2
  20   12   13 1
  21   12   14 2
  22   13   36 1
  23   15   16 1
  24   15   37 1
  25   15   38 1
  26   16   17 ar
  27   16   21 ar
  28   17   18 ar
  29   18   19 ar
  30   18   39 1
  31   19   20 ar
  32   19   22 1
  33   20   21 ar
  34   20   40 1
  35   21   41 1
  36   22   24 1
  37   22   27 2
  38   24   25 ar
  39   24   28 ar
  40   25   26 1
  41   25   31 ar
  42   26   27 1
  43   27   42 1
  44   28   29 ar
  45   28   43 1
  46   29   30 ar
  47   29   44 1
  48   30   31 ar
  49   30   45 1
  50   31   46 1

#	End of record

