#	Name: ASD03740185
#	Creating user name:	WinNT
#	Creation time:	15. 06. 2019 20:46

#	Modifying user name:	WinNT
#	Modification time:	15. 06. 2019 20:46

#	Program:	/corina/corina34_cracker 3.40 0067  02.08.2006

@<TRIPOS>MOLECULE
ASD03740185
  62   66    0    0    0
SMALL
NO_CHARGES


@<TRIPOS>ATOM
   1 C1            -0.0272     1.4588    -0.6621 C.ar    
   2 C2            -0.0120     0.0824    -0.9185 C.ar    
   3 C3            -1.1767    -0.6182    -1.0265 C.ar    
   4 C4            -2.4011     0.0323    -0.8818 C.ar    
   5 C5            -2.4297     1.4171    -0.6236 C.ar    
   6 C6            -1.2329     2.1268    -0.5091 C.ar    
   7 N7            -3.7046    -0.3866    -0.9347 N.pl3   
   8 N8            -4.5486     0.7065    -0.7150 N.2     
   9 C9            -3.8422     1.7877    -0.5274 C.2     
  10 O10           -4.3302     3.0330    -0.2858 O.3     
  11 C11           -4.1445    -1.7618    -1.1825 C.3     
  12 C12           -4.2682    -2.4937     0.1289 C.ar    
  13 C13           -5.4668    -2.4798     0.8175 C.ar    
  14 C14           -5.5810    -3.1509     2.0204 C.ar    
  15 C15           -4.4953    -3.8367     2.5353 C.ar    
  16 C16           -3.2960    -3.8503     1.8457 C.ar    
  17 C17           -3.1847    -3.1835     0.6402 C.ar    
  18 C18           -5.7513     3.1738    -0.2323 C.3     
  19 C19           -6.1088     4.6350     0.0470 C.3     
  20 Cl20          -4.6377    -4.6794     4.0464 Cl      
  21 C21           -7.6303     4.7857     0.1042 C.3     
  22 N22           -7.9769     6.2071     0.2365 N.3     
  23 C23           -7.3154     6.8063     1.4151 C.3     
  24 C24           -9.4340     6.3850     0.3750 C.3     
  25 C25           -9.6779     7.1522     1.6915 C.3     
  26 C26           -8.3208     7.8621     1.9389 C.3     
  27 C27           -6.0031     7.4777     1.0054 C.3     
  28 C28            1.2504     2.2037    -0.5476 C.ar    
  29 C29            2.4778     1.5505    -0.6923 C.ar    
  30 C30            3.6423     2.2814    -0.5788 C.ar    
  31 N31            3.6073     3.5780    -0.3373 N.ar    
  32 C32            2.4704     4.2322    -0.1941 C.ar    
  33 C33            1.2597     3.5791    -0.2978 C.ar    
  34 H34            0.9321    -0.4296    -1.0324 H       
  35 H35           -1.1506    -1.6795    -1.2248 H       
  36 H36           -1.2460     3.1884    -0.3109 H       
  37 H37           -5.1121    -1.7489    -1.6842 H       
  38 H38           -3.4146    -2.2685    -1.8139 H       
  39 H39           -6.3142    -1.9441     0.4157 H       
  40 H40           -6.5173    -3.1397     2.5585 H       
  41 H41           -2.4481    -4.3855     2.2472 H       
  42 H42           -2.2486    -3.1940     0.1017 H       
  43 H43           -6.1826     2.8701    -1.1862 H       
  44 H44           -6.1491     2.5439     0.5633 H       
  45 H45           -5.6775     4.9387     1.0008 H       
  46 H46           -5.7110     5.2649    -0.7487 H       
  47 H47           -8.0695     4.3883    -0.8108 H       
  48 H48           -8.0179     4.2359     0.9619 H       
  49 H49           -7.1311     6.0461     2.1742 H       
  50 H50           -9.8189     6.9609    -0.4666 H       
  51 H51           -9.9241     5.4122     0.4164 H       
  52 H52          -10.4781     7.8823     1.5696 H       
  53 H53           -9.9053     6.4616     2.5036 H       
  54 H54           -8.1681     8.0534     3.0010 H       
  55 H55           -8.2525     8.7854     1.3636 H       
  56 H56           -6.2082     8.2617     0.2764 H       
  57 H57           -5.5283     7.9140     1.8842 H       
  58 H58           -5.3379     6.7358     0.5637 H       
  59 H59            2.5139     0.4894    -0.8897 H       
  60 H60            4.5954     1.7855    -0.6887 H       
  61 H61            2.4879     5.2939     0.0031 H       
  62 H62            0.3330     4.1209    -0.1795 H       
@<TRIPOS>BOND
   1    1    2 ar
   2    1   28 1
   3    1    6 ar
   4    2    3 ar
   5    2   34 1
   6    3    4 ar
   7    3   35 1
   8    4    5 ar
   9    4    7 1
  10    5    6 ar
  11    5    9 1
  12    6   36 1
  13    7    8 1
  14    7   11 1
  15    8    9 2
  16    9   10 1
  17   10   18 1
  18   11   12 1
  19   11   37 1
  20   11   38 1
  21   12   13 ar
  22   12   17 ar
  23   13   14 ar
  24   13   39 1
  25   14   15 ar
  26   14   40 1
  27   15   16 ar
  28   15   20 1
  29   16   17 ar
  30   16   41 1
  31   17   42 1
  32   18   19 1
  33   18   43 1
  34   18   44 1
  35   19   21 1
  36   19   45 1
  37   19   46 1
  38   21   22 1
  39   21   47 1
  40   21   48 1
  41   22   24 1
  42   22   23 1
  43   23   27 1
  44   23   26 1
  45   23   49 1
  46   24   25 1
  47   24   50 1
  48   24   51 1
  49   25   26 1
  50   25   52 1
  51   25   53 1
  52   26   54 1
  53   26   55 1
  54   27   56 1
  55   27   57 1
  56   27   58 1
  57   28   29 ar
  58   28   33 ar
  59   29   30 ar
  60   29   59 1
  61   30   31 ar
  62   30   60 1
  63   31   32 ar
  64   32   33 ar
  65   32   61 1
  66   33   62 1

#	End of record

