#	Name: ASD01812164
#	Creating user name:	WinNT
#	Creation time:	15. 06. 2019 19:28

#	Modifying user name:	WinNT
#	Modification time:	15. 06. 2019 19:28

#	Program:	/corina/corina34_cracker 3.40 0067  02.08.2006

@<TRIPOS>MOLECULE
ASD01812164
  70   76    0    0    0
SMALL
NO_CHARGES


@<TRIPOS>ATOM
   1 C1            -0.0168     1.3890     0.0097 C.ar    
   2 C2             0.0021    -0.0041     0.0020 C.ar    
   3 C3             1.1787    -0.6895    -0.0125 C.ar    
   4 C4             2.3941     0.0134    -0.0203 C.ar    
   5 C5             2.3756     1.4326    -0.0130 C.ar    
   6 C6             1.1407     2.1050     0.0025 C.ar    
   7 C7             3.6272    -0.6637    -0.0358 C.ar    
   8 C8             4.7900     0.0351    -0.0436 C.ar    
   9 C9             4.7882     1.4439    -0.0361 C.ar    
  10 C10            3.5864     2.1337    -0.0214 C.ar    
  11 C11            3.6565    -2.1704    -0.0431 C.3     
  12 C12            5.8880     2.4286    -0.0415 C.2     
  13 N13            5.3952     3.6790    -0.0301 N.am    
  14 C14            3.9298     3.6021    -0.0168 C.3     
  15 O15            7.0708     2.1485    -0.0540 O.2     
  16 C16            6.1876     4.9112    -0.0312 C.3     
  17 C17            7.0575     4.9570    -1.2890 C.3     
  18 C18            7.8851     6.2438    -1.2901 C.3     
  19 C19            8.7800     6.2758    -0.0495 C.3     
  20 C20            7.9100     6.2300     1.2082 C.3     
  21 C21            7.0825     4.9431     1.2094 C.3     
  22 O22            6.2217     4.9271    -2.4476 O.3     
  23 N23            3.4120    -2.6584    -1.4069 N.3     
  24 C24            3.6657    -4.1015    -1.5029 C.3     
  25 C25            3.2457    -4.6019    -2.8884 C.3     
  26 C26            4.0125    -3.8346    -3.9572 C.3     
  27 C27            3.8110    -2.3330    -3.8013 C.3     
  28 C28            4.2120    -1.9099    -2.3849 C.3     
  29 C29            5.5110    -4.1865    -3.9050 C.3     
  30 O30            5.6196    -5.2490    -4.8697 O.3     
  31 C31            4.6345    -5.1151    -5.8007 C.ar    
  32 C32            3.6139    -4.2905    -5.3405 C.ar    
  33 C33            4.5303    -5.6669    -7.0749 C.ar    
  34 C34            3.4270    -5.4033    -7.8593 C.ar    
  35 C35            2.4142    -4.5879    -7.3883 C.ar    
  36 C36            2.5113    -4.0322    -6.1252 C.ar    
  37 H37           -0.9637     1.9083     0.0170 H       
  38 H38           -0.9306    -0.5486     0.0080 H       
  39 H39            1.1770    -1.7695    -0.0175 H       
  40 H40            1.1108     3.1846     0.0079 H       
  41 H41            5.7302    -0.4960    -0.0555 H       
  42 H42            4.6326    -2.5165     0.2971 H       
  43 H43            2.8831    -2.5521     0.6235 H       
  44 H44            3.5210     4.0855    -0.9040 H       
  45 H45            3.5378     4.0759     0.8832 H       
  46 H46            5.5198     5.7726    -0.0198 H       
  47 H47            7.7253     4.0956    -1.3004 H       
  48 H48            8.5048     6.2765    -2.1862 H       
  49 H49            7.2173     7.1053    -1.2787 H       
  50 H50            9.4478     5.4144    -0.0610 H       
  51 H51            9.3695     7.1926    -0.0504 H       
  52 H52            8.5476     6.2528     2.0920 H       
  53 H53            7.2422     7.0914     1.2197 H       
  54 H54            6.4627     4.9105     2.1054 H       
  55 H55            7.7503     4.0817     1.1979 H       
  56 H56            6.7071     4.9535    -3.2836 H       
  57 H57            4.7281    -4.2945    -1.3535 H       
  58 H58            3.0904    -4.6234    -0.7382 H       
  59 H59            3.4687    -5.6654    -2.9739 H       
  60 H60            2.1759    -4.4425    -3.0235 H       
  61 H61            4.4302    -1.8059    -4.5271 H       
  62 H62            2.7627    -2.0874    -3.9710 H       
  63 H63            4.0327    -0.8420    -2.2601 H       
  64 H64            5.2696    -2.1219    -2.2279 H       
  65 H65            6.1193    -3.3319    -4.2012 H       
  66 H66            5.7916    -4.5363    -2.9115 H       
  67 H67            5.3172    -6.3039    -7.4508 H       
  68 H68            3.3537    -5.8355    -8.8464 H       
  69 H69            1.5503    -4.3859    -8.0042 H       
  70 H70            1.7221    -3.3953    -5.7539 H       
@<TRIPOS>BOND
   1    1    2 ar
   2    1    6 ar
   3    1   37 1
   4    2    3 ar
   5    2   38 1
   6    3    4 ar
   7    3   39 1
   8    4    5 ar
   9    4    7 ar
  10    5    6 ar
  11    5   10 ar
  12    6   40 1
  13    7    8 ar
  14    7   11 1
  15    8    9 ar
  16    8   41 1
  17    9   10 ar
  18    9   12 1
  19   10   14 1
  20   11   23 1
  21   11   42 1
  22   11   43 1
  23   12   13 am
  24   12   15 2
  25   13   14 1
  26   13   16 1
  27   14   44 1
  28   14   45 1
  29   16   17 1
  30   16   21 1
  31   16   46 1
  32   17   18 1
  33   17   22 1
  34   17   47 1
  35   18   19 1
  36   18   48 1
  37   18   49 1
  38   19   20 1
  39   19   50 1
  40   19   51 1
  41   20   21 1
  42   20   52 1
  43   20   53 1
  44   21   54 1
  45   21   55 1
  46   22   56 1
  47   23   24 1
  48   23   28 1
  49   24   25 1
  50   24   57 1
  51   24   58 1
  52   25   26 1
  53   25   59 1
  54   25   60 1
  55   26   27 1
  56   26   29 1
  57   26   32 1
  58   27   28 1
  59   27   61 1
  60   27   62 1
  61   28   63 1
  62   28   64 1
  63   29   30 1
  64   29   65 1
  65   29   66 1
  66   30   31 1
  67   31   32 ar
  68   31   33 ar
  69   32   36 ar
  70   33   34 ar
  71   33   67 1
  72   34   35 ar
  73   34   68 1
  74   35   36 ar
  75   35   69 1
  76   36   70 1

#	End of record

