#	Name: ASD01814616
#	Creating user name:	WinNT
#	Creation time:	15. 06. 2019 19:32

#	Modifying user name:	WinNT
#	Modification time:	15. 06. 2019 19:32

#	Program:	/corina/corina34_cracker 3.40 0067  02.08.2006

@<TRIPOS>MOLECULE
ASD01814616
  48   51    0    0    0
SMALL
NO_CHARGES


@<TRIPOS>ATOM
   1 N1             0.0183     1.3266    -0.5497 N.2     
   2 C2             0.0419     0.0255    -0.7186 C.2     
   3 C3             1.2596    -0.6388    -0.9254 C.2     
   4 C4             2.4120     0.0740    -0.9493 C.2     
   5 C5             1.1510     2.0417    -0.5713 C.2     
   6 N6             2.3602     1.4268    -0.7709 N.pl3   
   7 C7             2.7761     3.5850    -0.5373 C.2     
   8 N8             3.3484     2.4162    -0.7437 N.2     
   9 N9             1.8079     5.7523    -0.1641 N.am    
  10 C10            3.0792     5.0550    -0.3812 C.3     
  11 C11            1.4083     3.3992    -0.4240 C.2     
  12 C12            0.7519     4.7352    -0.1879 C.3     
  13 C13            1.6414     7.0769     0.0212 C.2     
  14 O14            0.5215     7.5431     0.1040 O.2     
  15 C15            2.8180     7.9611     0.1235 C.ar    
  16 C16            2.8919     8.9211     1.1422 C.ar    
  17 C17            3.8673     7.8426    -0.7907 C.ar    
  18 C18            4.9639     8.6713    -0.6894 C.ar    
  19 C19            5.0308     9.6222     0.3155 C.ar    
  20 C20            4.0028     9.7466     1.2291 C.ar    
  21 O21            1.8811     9.0424     2.0387 O.3     
  22 C22            2.0264    10.0427     3.0488 C.3     
  23 C23            0.7971    10.0300     3.9597 C.3     
  24 C24           -1.2449    -0.7583    -0.6899 C.3     
  25 C25            1.2865    -2.1331    -1.1189 C.3     
  26 C26            3.7329    -0.6172    -1.1693 C.3     
  27 H27            3.7350     5.2070     0.4761 H       
  28 H28            3.5578     5.4323    -1.2849 H       
  29 H29            0.2268     4.7252     0.7672 H       
  30 H30            0.0504     4.9498    -0.9941 H       
  31 H31            3.8196     7.1023    -1.5756 H       
  32 H32            5.7750     8.5786    -1.3965 H       
  33 H33            5.8940    10.2672     0.3876 H       
  34 H34            4.0640    10.4876     2.0124 H       
  35 H35            2.9186     9.8356     3.6397 H       
  36 H36            2.1207    11.0220     2.5795 H       
  37 H37            0.9080    10.7930     4.7302 H       
  38 H38           -0.0951    10.2372     3.3689 H       
  39 H39            0.7028     9.0508     4.4291 H       
  40 H40           -2.0803    -0.0791    -0.5191 H       
  41 H41           -1.3808    -1.2688    -1.6433 H       
  42 H42           -1.2045    -1.4937     0.1135 H       
  43 H43            0.2705    -2.5245    -1.0672 H       
  44 H44            1.7162    -2.3656    -2.0933 H       
  45 H45            1.8921    -2.5899    -0.3363 H       
  46 H46            3.5672    -1.6878    -1.2895 H       
  47 H47            4.2059    -0.2196    -2.0673 H       
  48 H48            4.3811    -0.4440    -0.3103 H       
@<TRIPOS>BOND
   1    1    2 2
   2    1    5 1
   3    2    3 1
   4    2   24 1
   5    3    4 2
   6    3   25 1
   7    4    6 1
   8    4   26 1
   9    5   11 2
  10    5    6 1
  11    6    8 1
  12    7    8 2
  13    7   11 1
  14    7   10 1
  15    9   10 1
  16    9   12 1
  17    9   13 am
  18   10   27 1
  19   10   28 1
  20   11   12 1
  21   12   29 1
  22   12   30 1
  23   13   14 2
  24   13   15 1
  25   15   17 ar
  26   15   16 ar
  27   16   20 ar
  28   16   21 1
  29   17   18 ar
  30   17   31 1
  31   18   19 ar
  32   18   32 1
  33   19   20 ar
  34   19   33 1
  35   20   34 1
  36   21   22 1
  37   22   23 1
  38   22   35 1
  39   22   36 1
  40   23   37 1
  41   23   38 1
  42   23   39 1
  43   24   40 1
  44   24   41 1
  45   24   42 1
  46   25   43 1
  47   25   44 1
  48   25   45 1
  49   26   46 1
  50   26   47 1
  51   26   48 1

#	End of record

