#	Name: ASD06340029
#	Creating user name:	WinNT
#	Creation time:	15. 06. 2019 21:05

#	Modifying user name:	WinNT
#	Modification time:	15. 06. 2019 21:05

#	Program:	/corina/corina34_cracker 3.40 0067  02.08.2006

@<TRIPOS>MOLECULE
ASD06340029
  35   37    0    0    0
SMALL
NO_CHARGES


@<TRIPOS>ATOM
   1 S1            -0.0210     1.6939     0.0114 S.3     
   2 N2             0.0021    -0.0041     0.0020 N.am    
   3 C3             1.2962    -0.3594    -0.0122 C.2     
   4 N4             2.1856     0.6226    -0.0155 N.am    
   5 C5             1.6912     1.8721    -0.0040 C.2     
   6 O6             1.6365    -1.5276    -0.0214 O.2     
   7 O7             2.3224     2.9128    -0.0052 O.2     
   8 C8             3.6269     0.3610    -0.0302 C.3     
   9 C9             4.1080     0.2785    -1.4559 C.ar    
  10 C10            4.5424     1.4190    -2.1053 C.ar    
  11 C11            4.9842     1.3446    -3.4127 C.ar    
  12 C12            4.9917     0.1271    -4.0721 C.ar    
  13 C13            4.5563    -1.0145    -3.4206 C.ar    
  14 C14            4.1199    -0.9385    -2.1116 C.ar    
  15 F15            5.4229     0.0532    -5.3503 F       
  16 C16           -1.1035    -0.8590     0.0084 C.ar    
  17 C17           -2.3259    -0.4204    -0.4858 C.ar    
  18 C18           -3.4161    -1.2676    -0.4780 C.ar    
  19 C19           -3.2925    -2.5517     0.0211 C.ar    
  20 C20           -2.0776    -2.9915     0.5137 C.ar    
  21 C21           -0.9815    -2.1511     0.5036 C.ar    
  22 C22           -4.7423    -0.7926    -1.0133 C.3     
  23 F23           -4.8236    -1.0803    -2.3800 F       
  24 F24           -5.7788    -1.4449    -0.3370 F       
  25 F25           -4.8557     0.5883    -0.8198 F       
  26 H26            4.1482     1.1691     0.4830 H       
  27 H27            3.8302    -0.5822     0.4770 H       
  28 H28            4.5362     2.3686    -1.5909 H       
  29 H29            5.3232     2.2357    -3.9199 H       
  30 H30            4.5617    -1.9647    -3.9340 H       
  31 H31            3.7842    -1.8295    -1.6019 H       
  32 H32           -2.4232     0.5822    -0.8753 H       
  33 H33           -4.1469    -3.2122     0.0264 H       
  34 H34           -1.9847    -3.9946     0.9029 H       
  35 H35           -0.0318    -2.4968     0.8843 H       
@<TRIPOS>BOND
   1    1    2 1
   2    1    5 1
   3    2    3 am
   4    2   16 1
   5    3    4 am
   6    3    6 2
   7    4    5 am
   8    4    8 1
   9    5    7 2
  10    8    9 1
  11    8   26 1
  12    8   27 1
  13    9   10 ar
  14    9   14 ar
  15   10   11 ar
  16   10   28 1
  17   11   12 ar
  18   11   29 1
  19   12   13 ar
  20   12   15 1
  21   13   14 ar
  22   13   30 1
  23   14   31 1
  24   16   17 ar
  25   16   21 ar
  26   17   18 ar
  27   17   32 1
  28   18   19 ar
  29   18   22 1
  30   19   20 ar
  31   19   33 1
  32   20   21 ar
  33   20   34 1
  34   21   35 1
  35   22   23 1
  36   22   24 1
  37   22   25 1

#	End of record

