#	Name: ASD01880138
#	Creating user name:	WinNT
#	Creation time:	15. 06. 2019 19:40

#	Modifying user name:	WinNT
#	Modification time:	15. 06. 2019 19:40

#	Program:	/corina/corina34_cracker 3.40 0067  02.08.2006

@<TRIPOS>MOLECULE
ASD01880138
  57   61    0    0    0
SMALL
NO_CHARGES


@<TRIPOS>ATOM
   1 C1            -0.0168     1.3866     0.0097 C.ar    
   2 C2             0.0021    -0.0041     0.0020 C.ar    
   3 C3            -1.1908    -0.7171     0.0095 C.ar    
   4 C4            -2.3920    -0.0608     0.0240 C.ar    
   5 C5            -2.4274     1.3358     0.0319 C.ar    
   6 C6            -1.2195     2.0577     0.0305 C.ar    
   7 C7            -3.8022    -0.6015     0.0348 C.3     
   8 C8            -4.7307     0.6205     0.0504 C.3     
   9 C9            -3.8138     1.8193     0.0479 C.2     
  10 Cl10          -1.2453     3.7935     0.0407 Cl      
  11 Cl11           1.4742     2.2757     0.0002 Cl      
  12 O12            1.1867    -0.6655    -0.0133 O.3     
  13 C13           -5.6171     0.6286    -1.1967 C.3     
  14 C14           -5.5927     0.6151     1.3145 C.3     
  15 C15           -6.5593     1.8580    -1.1925 C.3     
  16 C16           -6.9053     2.0745    -2.6802 C.3     
  17 C17           -5.7662     1.4357    -3.4939 C.3     
  18 C18           -4.7677     0.8532    -2.4723 C.3     
  19 O19           -4.1620     2.9813     0.0575 O.2     
  20 C20            4.5005    -2.7387     1.3253 C.ar    
  21 C21            5.2040    -2.4360     2.4832 C.ar    
  22 C22            6.5029    -2.8734     2.6367 C.ar    
  23 C23            7.1089    -3.6202     1.6284 C.ar    
  24 C24            6.4003    -3.9229     0.4675 C.ar    
  25 C25            5.1018    -3.4825     0.3191 C.ar    
  26 C26            8.5069    -4.0919     1.7906 C.2     
  27 N27            9.3067    -3.8788     2.8451 N.2     
  28 N28           10.4343    -4.4518     2.5924 N.2     
  29 N29           10.3699    -5.0084     1.4335 N.pl3   
  30 N30            9.2017    -4.8068     0.9280 N.2     
  31 C31            1.1324    -2.0935    -0.0204 C.3     
  32 C32            2.5544    -2.6578    -0.0375 C.3     
  33 O33            3.2192    -2.3109     1.1789 O.3     
  34 H34           -1.1699    -1.7969     0.0035 H       
  35 H35           -3.9819    -1.1970    -0.8603 H       
  36 H36           -3.9645    -1.2066     0.9268 H       
  37 H37           -6.1893    -0.2964    -1.2681 H       
  38 H38           -4.9485     0.6333     2.1936 H       
  39 H39           -6.2375     1.4940     1.3183 H       
  40 H40           -6.2061    -0.2857     1.3321 H       
  41 H41           -7.4610     1.6456    -0.6181 H       
  42 H42           -6.0457     2.7308    -0.7893 H       
  43 H43           -7.8518     1.5889    -2.9179 H       
  44 H44           -6.9672     3.1407    -2.8978 H       
  45 H45           -6.1599     0.6401    -4.1265 H       
  46 H46           -5.2753     2.1919    -4.1064 H       
  47 H47           -3.9649     1.5638    -2.2758 H       
  48 H48           -4.3620    -0.0924    -2.8319 H       
  49 H49            4.7338    -1.8571     3.2644 H       
  50 H50            7.0500    -2.6370     3.5374 H       
  51 H51            6.8677    -4.5012    -0.3158 H       
  52 H52            4.5520    -3.7172    -0.5803 H       
  53 H53           11.0868    -5.5052     1.0090 H       
  54 H54            0.6140    -2.4418     0.8729 H       
  55 H55            0.5964    -2.4322    -0.9069 H       
  56 H56            2.5135    -3.7429    -0.1325 H       
  57 H57            3.1012    -2.2395    -0.8825 H       
@<TRIPOS>BOND
   1    1    2 ar
   2    1   11 1
   3    1    6 ar
   4    2    3 ar
   5    2   12 1
   6    3    4 ar
   7    3   34 1
   8    4    5 ar
   9    4    7 1
  10    5    6 ar
  11    5    9 1
  12    6   10 1
  13    7    8 1
  14    7   35 1
  15    7   36 1
  16    8    9 1
  17    8   13 1
  18    8   14 1
  19    9   19 2
  20   12   31 1
  21   13   15 1
  22   13   18 1
  23   13   37 1
  24   14   38 1
  25   14   39 1
  26   14   40 1
  27   15   16 1
  28   15   41 1
  29   15   42 1
  30   16   17 1
  31   16   43 1
  32   16   44 1
  33   17   18 1
  34   17   45 1
  35   17   46 1
  36   18   47 1
  37   18   48 1
  38   20   21 ar
  39   20   25 ar
  40   20   33 1
  41   21   22 ar
  42   21   49 1
  43   22   23 ar
  44   22   50 1
  45   23   24 ar
  46   23   26 1
  47   24   25 ar
  48   24   51 1
  49   25   52 1
  50   26   27 1
  51   26   30 2
  52   27   28 2
  53   28   29 1
  54   29   30 1
  55   29   53 1
  56   31   32 1
  57   31   54 1
  58   31   55 1
  59   32   33 1
  60   32   56 1
  61   32   57 1

#	End of record

