#	Name: ASD01884825
#	Creating user name:	WinNT
#	Creation time:	15. 06. 2019 19:48

#	Modifying user name:	WinNT
#	Modification time:	15. 06. 2019 19:48

#	Program:	/corina/corina34_cracker 3.40 0067  02.08.2006

@<TRIPOS>MOLECULE
ASD01884825
  51   54    0    0    0
SMALL
NO_CHARGES


@<TRIPOS>ATOM
   1 Cl1            0.0000     0.0000     0.0000 Cl      
   2 H2             0.0000     1.3700     0.0000 H       
   3 C3            14.6708    15.3713     6.8358 C.3     
   4 N4            14.6907    13.9064     6.8277 N.am    
   5 C5            13.4924    13.2067     6.8296 C.2     
   6 C6            12.2023    13.6472     6.8386 C.2     
   7 C7            11.3618    12.5209     6.8363 C.2     
   8 N8            12.1176    11.4426     6.8263 N.2     
   9 N9            13.4608    11.8452     6.8219 N.pl3   
  10 C10           14.6414    11.1096     6.8121 C.ar    
  11 C11           14.6194     9.7228     6.8037 C.ar    
  12 C12           15.8061     9.0169     6.7936 C.ar    
  13 C13           17.0222     9.6815     6.7919 C.ar    
  14 C14           17.0636    11.0601     6.8007 C.ar    
  15 C15           15.8729    11.7841     6.8104 C.ar    
  16 C16           15.8736    13.2581     6.8129 C.2     
  17 O17           16.9204    13.8779     6.8064 O.2     
  18 C18            9.8784    12.5429     6.8443 C.ar    
  19 C19            9.1785    13.7526     6.8494 C.ar    
  20 C20            7.7988    13.7276     6.8563 C.ar    
  21 N21            7.1423    12.5834     6.8581 N.ar    
  22 C22            7.7648    11.4200     6.8535 C.ar    
  23 C23            9.1426    11.3542     6.8411 C.ar    
  24 C24            6.9596    10.1461     6.8564 C.3     
  25 C25            7.6816     9.0846     6.0240 C.3     
  26 C26            6.8642     7.7913     6.0269 C.3     
  27 C27            6.7057     7.2914     7.4643 C.3     
  28 C28            5.9837     8.3529     8.2967 C.3     
  29 C29            6.8012     9.6462     8.2937 C.3     
  30 H30           15.6934    15.7485     6.8280 H       
  31 H31           14.1436    15.7323     5.9527 H       
  32 H32           14.1606    15.7228     7.7326 H       
  33 H33           11.8828    14.6788     6.8465 H       
  34 H34           13.6764     9.1963     6.8053 H       
  35 H35           15.7864     7.9371     6.7874 H       
  36 H36           17.9428     9.1167     6.7840 H       
  37 H37           18.0128    11.5753     6.8000 H       
  38 H38            9.7095    14.6930     6.8483 H       
  39 H39            7.2492    14.6573     6.8606 H       
  40 H40            9.6455    10.3985     6.8331 H       
  41 H41            5.9759    10.3370     6.4276 H       
  42 H42            7.7945     9.4407     5.0000 H       
  43 H43            8.6653     8.8937     6.4528 H       
  44 H44            5.8804     7.9822     5.5981 H       
  45 H45            7.3785     7.0350     5.4339 H       
  46 H46            6.1233     6.3700     7.4664 H       
  47 H47            7.6894     7.1005     7.8931 H       
  48 H48            5.0000     8.5438     7.8679 H       
  49 H49            5.8708     7.9968     9.3207 H       
  50 H50            7.7849     9.4553     8.7226 H       
  51 H51            6.2868    10.4025     8.8868 H       
@<TRIPOS>BOND
   1    1    2 1
   2    3    4 1
   3    3   30 1
   4    3   31 1
   5    3   32 1
   6    4   16 am
   7    4    5 1
   8    5    9 1
   9    5    6 2
  10    6    7 1
  11    6   33 1
  12    7    8 2
  13    7   18 1
  14    8    9 1
  15    9   10 1
  16   10   15 ar
  17   10   11 ar
  18   11   12 ar
  19   11   34 1
  20   12   13 ar
  21   12   35 1
  22   13   14 ar
  23   13   36 1
  24   14   15 ar
  25   14   37 1
  26   15   16 1
  27   16   17 2
  28   18   23 ar
  29   18   19 ar
  30   19   20 ar
  31   19   38 1
  32   20   21 ar
  33   20   39 1
  34   21   22 ar
  35   22   23 ar
  36   22   24 1
  37   23   40 1
  38   24   29 1
  39   24   25 1
  40   24   41 1
  41   25   26 1
  42   25   42 1
  43   25   43 1
  44   26   27 1
  45   26   44 1
  46   26   45 1
  47   27   28 1
  48   27   46 1
  49   27   47 1
  50   28   29 1
  51   28   48 1
  52   28   49 1
  53   29   50 1
  54   29   51 1

#	End of record

