#	Name: ASD01940289
#	Creating user name:	WinNT
#	Creation time:	15. 06. 2019 20:12

#	Modifying user name:	WinNT
#	Modification time:	15. 06. 2019 20:12

#	Program:	/corina/corina34_cracker 3.40 0067  02.08.2006

@<TRIPOS>MOLECULE
ASD01940289
  40   42    0    0    0
SMALL
NO_CHARGES


@<TRIPOS>ATOM
   1 C1            -1.2379     4.0173     1.4712 C.3     
   2 C2            -1.7495     3.3461     2.7474 C.3     
   3 C3            -0.2889     3.7910     2.6497 C.3     
   4 S4            -1.0174     2.9716     0.0055 S.o2    
   5 O5             0.0492     2.0537     0.2036 O.2     
   6 O6            -2.2759     2.5362    -0.4904 O.2     
   7 N7            -0.4551     4.0058    -1.1592 N.am    
   8 C8             0.7670     4.6729    -0.9753 C.ar    
   9 C9             0.7979     6.0627    -0.8917 C.ar    
  10 C10            2.0090     6.7182    -0.7092 C.ar    
  11 C11            3.1835     5.9900    -0.6106 C.ar    
  12 C12            3.1541     4.6082    -0.6935 C.ar    
  13 C13            1.9482     3.9471    -0.8703 C.ar    
  14 O14            1.9214     2.5889    -0.9458 O.3     
  15 C15            3.1541     1.9021    -0.7205 C.3     
  16 N16           -0.3909     6.7988    -0.9921 N.pl3   
  17 C17           -0.3449     8.1633    -1.2937 C.ar    
  18 C18           -0.0599     8.5808    -2.5884 C.ar    
  19 C19           -0.0150     9.9294    -2.8837 C.ar    
  20 C20           -0.2538    10.8650    -1.8909 C.ar    
  21 C21           -0.5379    10.4513    -0.6005 C.ar    
  22 C22           -0.5896     9.1036    -0.3015 C.ar    
  23 I23            0.3021     7.1659    -4.0904 I       
  24 F24           -0.2090    12.1835    -2.1818 F       
  25 F25            4.3602     6.6297    -0.4336 F       
  26 F26            2.0416     8.0664    -0.6283 F       
  27 H27           -1.5623     5.0393     1.2753 H       
  28 H28           -2.4105     3.9266     3.3911 H       
  29 H29           -1.9536     2.2762     2.7063 H       
  30 H30            0.4680     3.0138     2.5444 H       
  31 H31            0.0111     4.6641     3.2292 H       
  32 H32           -0.9698     4.1508    -1.9685 H       
  33 H33            4.0719     4.0441    -0.6165 H       
  34 H34            3.8609     2.1554    -1.5107 H       
  35 H35            3.5653     2.2005     0.2439 H       
  36 H36            2.9766     0.8267    -0.7227 H       
  37 H37           -1.2454     6.3615    -0.8523 H       
  38 H38            0.2068    10.2545    -3.8894 H       
  39 H39           -0.7234    11.1828     0.1720 H       
  40 H40           -0.8157     8.7815     0.7043 H       
@<TRIPOS>BOND
   1    1    2 1
   2    1    3 1
   3    1    4 1
   4    1   27 1
   5    2    3 1
   6    2   28 1
   7    2   29 1
   8    3   30 1
   9    3   31 1
  10    4    5 2
  11    4    6 2
  12    4    7 am
  13    7    8 1
  14    7   32 1
  15    8    9 ar
  16    8   13 ar
  17    9   10 ar
  18    9   16 1
  19   10   11 ar
  20   10   26 1
  21   11   12 ar
  22   11   25 1
  23   12   13 ar
  24   12   33 1
  25   13   14 1
  26   14   15 1
  27   15   34 1
  28   15   35 1
  29   15   36 1
  30   16   17 1
  31   16   37 1
  32   17   18 ar
  33   17   22 ar
  34   18   19 ar
  35   18   23 1
  36   19   20 ar
  37   19   38 1
  38   20   21 ar
  39   20   24 1
  40   21   22 ar
  41   21   39 1
  42   22   40 1

#	End of record

