#	Name: ASD00660004
#	Creating user name:	WinNT
#	Creation time:	15. 06. 2019 18:36

#	Modifying user name:	WinNT
#	Modification time:	15. 06. 2019 18:36

#	Program:	/corina/corina34_cracker 3.40 0067  02.08.2006

@<TRIPOS>MOLECULE
ASD00660004
  71   76    0    0    0
SMALL
NO_CHARGES


@<TRIPOS>ATOM
   1 C1             9.1524    -2.5564     5.3542 C.ar    
   2 C2             8.0859    -3.4186     5.1344 C.ar    
   3 C3             7.1992    -3.1957     4.1056 C.ar    
   4 C4             7.3720    -2.0886     3.2704 C.ar    
   5 C5             8.4587    -1.2131     3.4971 C.ar    
   6 C6             9.3445    -1.4582     4.5451 C.ar    
   7 N7             6.5226    -1.8344     2.2474 N.2     
   8 C8             6.6844    -0.7969     1.4639 C.2     
   9 N9             7.7077     0.0981     1.6139 N.am    
  10 C10            8.6169    -0.0576     2.6039 C.2     
  11 C11            7.8153     1.1843     0.7359 C.ar    
  12 C12            8.4667     1.0333    -0.4810 C.ar    
  13 C13            8.5707     2.1060    -1.3448 C.ar    
  14 C14            8.0270     3.3294    -0.9988 C.ar    
  15 C15            7.3780     3.4831     0.2126 C.ar    
  16 C16            7.2657     2.4126     1.0782 C.ar    
  17 O17            9.5324     0.7315     2.7492 O.2     
  18 S18            5.5310    -0.5432     0.1563 S.3     
  19 C19            4.5465    -2.0545     0.3080 C.3     
  20 C20            3.3825    -2.0066    -0.6839 C.3     
  21 C21            2.4407    -0.8603    -0.3100 C.3     
  22 C22            1.2127    -0.8911    -1.2221 C.3     
  23 C23            0.2708     0.2552    -0.8483 C.3     
  24 C24            5.4129    -3.2506     0.0085 C.2     
  25 N25            5.0430    -4.4744     0.4352 N.am    
  26 O26            6.4429    -3.1120    -0.6165 O.2     
  27 C27            5.8852    -5.6372     0.1441 C.3     
  28 C28            5.2425    -6.8933     0.7356 C.3     
  29 C29            6.1222    -8.1077     0.4315 C.3     
  30 C30            6.2605    -8.2707    -1.0835 C.3     
  31 C31            6.9032    -7.0145    -1.6750 C.3     
  32 C32            6.0236    -5.8001    -1.3709 C.3     
  33 C33            8.2871    -6.8097    -1.0556 C.3     
  34 C34            8.1488    -6.6468     0.4594 C.3     
  35 C35            7.2692    -5.4324     0.7635 C.3     
  36 C36            7.5061    -7.9029     1.0509 C.3     
  37 H37            9.8346    -2.7461     6.1696 H       
  38 H38            7.9509    -4.2749     5.7786 H       
  39 H39            6.3739    -3.8734     3.9444 H       
  40 H40           10.1760    -0.7919     4.7213 H       
  41 H41            8.8919     0.0781    -0.7517 H       
  42 H42            9.0776     1.9893    -2.2913 H       
  43 H43            8.1096     4.1667    -1.6759 H       
  44 H44            6.9550     4.4400     0.4804 H       
  45 H45            6.7587     2.5333     2.0241 H       
  46 H46            4.1561    -2.1335     1.3227 H       
  47 H47            3.7691    -1.8457    -1.6902 H       
  48 H48            2.8377    -2.9501    -0.6505 H       
  49 H49            2.1256    -0.9725     0.7274 H       
  50 H50            2.9596     0.0906    -0.4314 H       
  51 H51            1.5277    -0.7789    -2.2596 H       
  52 H52            0.6938    -1.8420    -1.1008 H       
  53 H53           -0.0442     0.1430     0.1891 H       
  54 H54            0.7897     1.2060    -0.9696 H       
  55 H55           -0.6041     0.2332    -1.4981 H       
  56 H56            4.2191    -4.5852     0.9351 H       
  57 H57            5.1440    -6.7772     1.8149 H       
  58 H58            4.2566    -7.0392     0.2943 H       
  59 H59            5.6643    -9.0026     0.8529 H       
  60 H60            6.8872    -9.1359    -1.3001 H       
  61 H61            5.2746    -8.4166    -1.5247 H       
  62 H62            7.0018    -7.1307    -2.7543 H       
  63 H63            5.0376    -5.9460    -1.8122 H       
  64 H64            6.4815    -4.9052    -1.7923 H       
  65 H65            8.9138    -7.6749    -1.2722 H       
  66 H66            8.7450    -5.9148    -1.4770 H       
  67 H67            9.1347    -6.5009     0.9007 H       
  68 H68            7.7270    -4.5374     0.3421 H       
  69 H69            7.1706    -5.3162     1.8428 H       
  70 H70            7.4075    -7.7868     2.1302 H       
  71 H71            8.1328    -8.7681     0.8343 H       
@<TRIPOS>BOND
   1    1    2 ar
   2    1    6 ar
   3    1   37 1
   4    2    3 ar
   5    2   38 1
   6    3    4 ar
   7    3   39 1
   8    4    5 ar
   9    4    7 1
  10    5    6 ar
  11    5   10 1
  12    6   40 1
  13    7    8 2
  14    8    9 1
  15    8   18 1
  16    9   10 am
  17    9   11 1
  18   10   17 2
  19   11   12 ar
  20   11   16 ar
  21   12   13 ar
  22   12   41 1
  23   13   14 ar
  24   13   42 1
  25   14   15 ar
  26   14   43 1
  27   15   16 ar
  28   15   44 1
  29   16   45 1
  30   18   19 1
  31   19   20 1
  32   19   24 1
  33   19   46 1
  34   20   21 1
  35   20   47 1
  36   20   48 1
  37   21   22 1
  38   21   49 1
  39   21   50 1
  40   22   23 1
  41   22   51 1
  42   22   52 1
  43   23   53 1
  44   23   54 1
  45   23   55 1
  46   24   25 am
  47   24   26 2
  48   25   27 1
  49   25   56 1
  50   27   28 1
  51   27   32 1
  52   27   35 1
  53   28   29 1
  54   28   57 1
  55   28   58 1
  56   29   30 1
  57   29   36 1
  58   29   59 1
  59   30   31 1
  60   30   60 1
  61   30   61 1
  62   31   32 1
  63   31   33 1
  64   31   62 1
  65   32   63 1
  66   32   64 1
  67   33   34 1
  68   33   65 1
  69   33   66 1
  70   34   35 1
  71   34   36 1
  72   34   67 1
  73   35   68 1
  74   35   69 1
  75   36   70 1
  76   36   71 1

#	End of record

