#	Name: ASD08070249
#	Creating user name:	WinNT
#	Creation time:	15. 06. 2019 21:14

#	Modifying user name:	WinNT
#	Modification time:	15. 06. 2019 21:14

#	Program:	/corina/corina34_cracker 3.40 0067  02.08.2006

@<TRIPOS>MOLECULE
ASD08070249
  32   34    0    0    0
SMALL
NO_CHARGES


@<TRIPOS>ATOM
   1 N1            -0.0172     1.3441     0.0193 N.am    
   2 C2             0.0015    -0.0032    -0.0082 C.2     
   3 O3             1.0624    -0.5958    -0.0488 O.2     
   4 N4            -1.1558    -0.6938     0.0094 N.am    
   5 C5            -1.1402    -2.0897    -0.1040 C.ar    
   6 C6            -2.2463    -2.7591    -0.6138 C.ar    
   7 C7            -2.2278    -4.1364    -0.7244 C.ar    
   8 C8             1.1479     2.2344     0.0055 C.3     
   9 C9            -0.0180    -2.8064     0.2873 C.ar    
  10 C10           -0.0049    -4.1834     0.1745 C.ar    
  11 C11           -1.1093    -4.8485    -0.3275 C.ar    
  12 C12            0.6408     3.6537     0.0477 C.ar    
  13 C13           -0.7392     3.6338     0.0847 C.ar    
  14 C14           -1.2068     2.2005     0.0622 C.3     
  15 C15            1.3147     4.8631     0.0536 C.ar    
  16 C16            0.6085     6.0496     0.0969 C.ar    
  17 C17           -0.7734     6.0296     0.1340 C.ar    
  18 C18           -1.4464     4.8232     0.1272 C.ar    
  19 Cl19          -3.6497    -1.8662    -1.1106 Cl      
  20 Cl20          -1.0890    -6.5787    -0.4675 Cl      
  21 H21           -1.9996    -0.2240     0.1005 H       
  22 H22           -3.0868    -4.6576    -1.1204 H       
  23 H23            1.7723     2.0391     0.8773 H       
  24 H24            1.7240     2.0748    -0.9059 H       
  25 H25            0.8447    -2.2882     0.6793 H       
  26 H26            0.8685    -4.7412     0.4787 H       
  27 H27           -1.8261     2.0277    -0.8179 H       
  28 H28           -1.7777     1.9840     0.9651 H       
  29 H29            2.3942     4.8790     0.0247 H       
  30 H30            1.1355     6.9922     0.1022 H       
  31 H31           -1.3265     6.9566     0.1679 H       
  32 H32           -2.5259     4.8079     0.1562 H       
@<TRIPOS>BOND
   1    1    2 am
   2    1    8 1
   3    1   14 1
   4    2    3 2
   5    2    4 am
   6    4    5 1
   7    4   21 1
   8    5    6 ar
   9    5    9 ar
  10    6    7 ar
  11    6   19 1
  12    7   11 ar
  13    7   22 1
  14    8   12 1
  15    8   23 1
  16    8   24 1
  17    9   10 ar
  18    9   25 1
  19   10   11 ar
  20   10   26 1
  21   11   20 1
  22   12   13 ar
  23   12   15 ar
  24   13   14 1
  25   13   18 ar
  26   14   27 1
  27   14   28 1
  28   15   16 ar
  29   15   29 1
  30   16   17 ar
  31   16   30 1
  32   17   18 ar
  33   17   31 1
  34   18   32 1

#	End of record

