#	Name: ASD02390006
#	Creating user name:	WinNT
#	Creation time:	15. 06. 2019 20:20

#	Modifying user name:	WinNT
#	Modification time:	15. 06. 2019 20:20

#	Program:	/corina/corina34_cracker 3.40 0067  02.08.2006

@<TRIPOS>MOLECULE
ASD02390006
  44   46    0    0    0
SMALL
NO_CHARGES


@<TRIPOS>ATOM
   1 C1            -0.0321     1.3829     0.0120 C.2     
   2 C2             0.0206     0.0131    -0.0226 C.2     
   3 C3            -1.2947    -0.6135    -0.0354 C.2     
   4 C4            -2.2841     0.2815    -0.0153 C.2     
   5 S5            -1.6464     1.9199     0.0349 S.3     
   6 C6             1.2295    -0.7176    -0.0436 C.2     
   7 C7             1.9346    -1.0451     1.2474 C.3     
   8 O8             1.7006    -1.0818    -1.1022 O.2     
   9 N9             1.0735     2.2126     0.0315 N.am    
  10 C10            0.9150     3.5485    -0.0500 C.2     
  11 O11           -0.2014     4.0244    -0.1407 O.2     
  12 C12            2.0873     4.4282    -0.0292 C.2     
  13 C13           -1.4922    -2.1196    -0.0585 C.3     
  14 C14           -2.8225    -2.4643    -0.7209 C.3     
  15 C15           -3.9246    -2.5090     0.3352 C.3     
  16 C16           -4.0653    -1.1399     0.9947 C.3     
  17 C17           -3.7618    -0.0518    -0.0339 C.3     
  18 C18            2.0689     5.7920    -0.1041 C.2     
  19 C19            3.4053     6.2171    -0.0492 C.2     
  20 C20            4.1714     5.1087     0.0553 C.2     
  21 O21            3.3733     4.0332     0.0729 O.3     
  22 C22            3.1389    -1.9431     0.9572 C.3     
  23 C23            3.8547    -2.2756     2.2679 C.3     
  24 H24            2.2741    -0.1234     1.7199 H       
  25 H25            1.2470    -1.5639     1.9154 H       
  26 H26            1.9633     1.8333     0.1039 H       
  27 H27           -0.6792    -2.5821    -0.6182 H       
  28 H28           -1.4876    -2.5004     0.9628 H       
  29 H29           -3.0642    -1.7061    -1.4658 H       
  30 H30           -2.7450    -3.4373    -1.2061 H       
  31 H31           -4.8682    -2.7823    -0.1371 H       
  32 H32           -3.6712    -3.2514     1.0921 H       
  33 H33           -5.0831    -1.0171     1.3649 H       
  34 H34           -3.3634    -1.0619     1.8249 H       
  35 H35           -4.3373     0.8425     0.2051 H       
  36 H36           -4.0406    -0.4047    -1.0268 H       
  37 H37            1.1952     6.4212    -0.1890 H       
  38 H38            3.7556     7.2381    -0.0844 H       
  39 H39            5.2494     5.0930     0.1190 H       
  40 H40            2.7993    -2.8648     0.4847 H       
  41 H41            3.8264    -1.4243     0.2892 H       
  42 H42            3.1671    -2.7945     2.9359 H       
  43 H43            4.7126    -2.9154     2.0612 H       
  44 H44            4.1942    -1.3539     2.7404 H       
@<TRIPOS>BOND
   1    1    2 2
   2    1    9 1
   3    1    5 1
   4    2    3 1
   5    2    6 1
   6    3    4 2
   7    3   13 1
   8    4    5 1
   9    4   17 1
  10    6    7 1
  11    6    8 2
  12    7   22 1
  13    7   24 1
  14    7   25 1
  15    9   10 am
  16    9   26 1
  17   10   11 2
  18   10   12 1
  19   12   18 2
  20   12   21 1
  21   13   14 1
  22   13   27 1
  23   13   28 1
  24   14   15 1
  25   14   29 1
  26   14   30 1
  27   15   16 1
  28   15   31 1
  29   15   32 1
  30   16   17 1
  31   16   33 1
  32   16   34 1
  33   17   35 1
  34   17   36 1
  35   18   19 1
  36   18   37 1
  37   19   20 2
  38   19   38 1
  39   20   21 1
  40   20   39 1
  41   22   23 1
  42   22   40 1
  43   22   41 1
  44   23   42 1
  45   23   43 1
  46   23   44 1

#	End of record

