#	Name: ASD07130004
#	Creating user name:	WinNT
#	Creation time:	15. 06. 2019 21:09

#	Modifying user name:	WinNT
#	Modification time:	15. 06. 2019 21:09

#	Program:	/corina/corina34_cracker 3.40 0067  02.08.2006

@<TRIPOS>MOLECULE
ASD07130004
  39   41    0    0    0
SMALL
NO_CHARGES


@<TRIPOS>ATOM
   1 C1            -0.0167     1.3826     0.0096 C.ar    
   2 C2             0.0021    -0.0041     0.0020 C.ar    
   3 C3             1.1971    -0.6874    -0.0126 C.ar    
   4 C4             2.4237     0.0178    -0.0200 C.ar    
   5 C5             2.3862     1.4141    -0.0126 C.ar    
   6 C6             1.1660     2.0877     0.0021 C.ar    
   7 N7             3.6794    -0.4732    -0.0337 N.2     
   8 C8             4.6548     0.3671    -0.0382 C.2     
   9 S9             4.0426     2.0151    -0.0244 S.3     
  10 O10            1.1987    -2.0468    -0.0194 O.3     
  11 C11           -0.0738    -2.6971    -0.0109 C.3     
  12 C12            0.1284    -4.2136    -0.0204 C.3     
  13 N13            5.9961     0.0218    -0.0520 N.am    
  14 C14            6.9397     0.9842    -0.0556 C.2     
  15 C15            8.3685     0.6163    -0.0702 C.ar    
  16 O16            6.6135     2.1554    -0.0467 O.2     
  17 C17            9.3486     1.6127    -0.0740 C.ar    
  18 C18           10.6809     1.2652    -0.0872 C.ar    
  19 C19           11.0516    -0.0744    -0.0972 C.ar    
  20 C20           10.0800    -1.0685    -0.0940 C.ar    
  21 C21            8.7456    -0.7294    -0.0745 C.ar    
  22 O22           12.3658    -0.4128    -0.1106 O.3     
  23 C23           12.6766    -1.8075    -0.1204 C.3     
  24 H24           -0.9594     1.9096     0.0170 H       
  25 H25           -0.9284    -0.5524     0.0079 H       
  26 H26            1.1480     3.1676     0.0077 H       
  27 H27           -0.6228    -2.4093     0.8857 H       
  28 H28           -0.6394    -2.4004    -0.8941 H       
  29 H29           -0.8422    -4.7096    -0.0138 H       
  30 H30            0.6774    -4.5013    -0.9170 H       
  31 H31            0.6940    -4.5103     0.8629 H       
  32 H32            6.2563    -0.9126    -0.0590 H       
  33 H33            9.0613     2.6538    -0.0669 H       
  34 H34           11.4388     2.0345    -0.0901 H       
  35 H35           10.3722    -2.1082    -0.1025 H       
  36 H36            7.9913    -1.5024    -0.0720 H       
  37 H37           12.2620    -2.2784     0.7709 H       
  38 H38           12.2461    -2.2695    -1.0089 H       
  39 H39           13.7586    -1.9386    -0.1308 H       
@<TRIPOS>BOND
   1    1    2 ar
   2    1    6 ar
   3    1   24 1
   4    2    3 ar
   5    2   25 1
   6    3    4 ar
   7    3   10 1
   8    4    5 ar
   9    4    7 1
  10    5    6 ar
  11    5    9 1
  12    6   26 1
  13    7    8 2
  14    8    9 1
  15    8   13 1
  16   10   11 1
  17   11   12 1
  18   11   27 1
  19   11   28 1
  20   12   29 1
  21   12   30 1
  22   12   31 1
  23   13   14 am
  24   13   32 1
  25   14   15 1
  26   14   16 2
  27   15   17 ar
  28   15   21 ar
  29   17   18 ar
  30   17   33 1
  31   18   19 ar
  32   18   34 1
  33   19   20 ar
  34   19   22 1
  35   20   21 ar
  36   20   35 1
  37   21   36 1
  38   22   23 1
  39   23   37 1
  40   23   38 1
  41   23   39 1

#	End of record

