#	Name: ASD01916219
#	Creating user name:	WinNT
#	Creation time:	15. 06. 2019 20:06

#	Modifying user name:	WinNT
#	Modification time:	15. 06. 2019 20:06

#	Program:	/corina/corina34_cracker 3.40 0067  02.08.2006

@<TRIPOS>MOLECULE
ASD01916219
  35   37    0    0    0
SMALL
NO_CHARGES


@<TRIPOS>ATOM
   1 C1            -0.0709     1.3234    -0.2439 C.ar    
   2 C2             0.0164    -0.0540    -0.1651 C.ar    
   3 C3             1.2095    -0.6556     0.1803 C.ar    
   4 C4             2.3326     0.1278     0.4513 C.ar    
   5 C5             2.2431     1.5180     0.3714 C.ar    
   6 C6             1.0411     2.1112     0.0240 C.ar    
   7 O7             0.9496     3.4647    -0.0554 O.3     
   8 C8             1.4454     4.0737    -1.1645 C.ar    
   9 C9             1.3764     5.4526    -1.3003 C.ar    
  10 N10            1.8557     6.0476    -2.3747 N.ar    
  11 C11            2.4151     5.3658    -3.3548 C.ar    
  12 C12            2.5204     3.9887    -3.2917 C.ar    
  13 C13            2.0348     3.3236    -2.1777 C.ar    
  14 C14            3.6120    -0.5131     0.8220 C.2     
  15 N15            3.6956    -1.8560     0.8989 N.am    
  16 O16            4.5887     0.1712     1.0576 O.2     
  17 C17            4.9256    -2.4650     1.1443 C.ar    
  18 C18            5.0269    -3.8508     1.1071 C.ar    
  19 C19            6.2532    -4.4435     1.3520 C.ar    
  20 C20            7.3418    -3.6245     1.6271 C.ar    
  21 C21            7.1676    -2.2524     1.6477 C.ar    
  22 N22            5.9864    -1.7175     1.4051 N.ar    
  23 F23            8.5566    -4.1625     1.8723 F       
  24 H24           -1.0060     1.7884    -0.5191 H       
  25 H25           -0.8519    -0.6612    -0.3742 H       
  26 H26            1.2741    -1.7319     0.2412 H       
  27 H27            3.1085     2.1294     0.5803 H       
  28 H28            0.9251     6.0448    -0.5179 H       
  29 H29            2.7959     5.8901    -4.2188 H       
  30 H30            2.9798     3.4383    -4.0994 H       
  31 H31            2.1036     2.2485    -2.1016 H       
  32 H32            2.9001    -2.3989     0.7834 H       
  33 H33            4.1598    -4.4571     0.8903 H       
  34 H34            6.3618    -5.5178     1.3301 H       
  35 H35            8.0099    -1.6110     1.8609 H       
@<TRIPOS>BOND
   1    1    2 ar
   2    1    6 ar
   3    1   24 1
   4    2    3 ar
   5    2   25 1
   6    3    4 ar
   7    3   26 1
   8    4    5 ar
   9    4   14 1
  10    5    6 ar
  11    5   27 1
  12    6    7 1
  13    7    8 1
  14    8    9 ar
  15    8   13 ar
  16    9   10 ar
  17    9   28 1
  18   10   11 ar
  19   11   12 ar
  20   11   29 1
  21   12   13 ar
  22   12   30 1
  23   13   31 1
  24   14   15 am
  25   14   16 2
  26   15   17 1
  27   15   32 1
  28   17   18 ar
  29   17   22 ar
  30   18   19 ar
  31   18   33 1
  32   19   20 ar
  33   19   34 1
  34   20   21 ar
  35   20   23 1
  36   21   22 ar
  37   21   35 1

#	End of record

