#	Name: ASD01028369
#	Creating user name:	WinNT
#	Creation time:	15. 06. 2019 18:57

#	Modifying user name:	WinNT
#	Modification time:	15. 06. 2019 18:57

#	Program:	/corina/corina34_cracker 3.40 0067  02.08.2006

@<TRIPOS>MOLECULE
ASD01028369
  46   50    0    0    0
SMALL
NO_CHARGES


@<TRIPOS>ATOM
   1 C1            -0.0171     1.4105     0.0098 C.ar    
   2 C2             0.0021    -0.0041     0.0020 C.ar    
   3 C3             1.2172     2.1062     0.0017 C.ar    
   4 C4             2.3840     1.3600    -0.0135 C.ar    
   5 C5             2.3156    -0.0268    -0.0203 C.ar    
   6 N6             1.1664    -0.6615    -0.0123 N.ar    
   7 N7             1.2559     3.4929     0.0084 N.pl3   
   8 C8             2.5445     4.1898    -0.0001 C.3     
   9 C9             2.3106     5.6785     0.0096 C.2     
  10 N10            2.1971     6.4606     1.1054 N.pl3   
  11 C11            1.9932     7.7381     0.6400 C.2     
  12 N12            1.9932     7.6687    -0.6812 N.2     
  13 N13            2.1864     6.4483    -1.0427 N.2     
  14 N14            2.2464     6.2154     2.4791 N.2     
  15 C15            2.0988     7.2001     3.3377 C.2     
  16 C16            1.8876     8.5219     2.8913 C.2     
  17 C17            1.8361     8.7918     1.5602 C.2     
  18 C18            2.1545     6.9179     4.7932 C.ar    
  19 C19           -1.2223    -0.6977     0.0101 C.ar    
  20 C20           -2.3811     0.0331     0.0251 C.ar    
  21 C21           -2.3227     1.4307     0.0320 C.ar    
  22 N22           -1.1775     2.0678     0.0299 N.ar    
  23 O23           -3.5841    -0.5981     0.0329 O.3     
  24 C24           -4.7501     0.2280     0.0486 C.3     
  25 C25            2.3621     5.6165     5.2452 C.ar    
  26 C26            2.2591     6.3910     7.5124 C.ar    
  27 C27            2.0582     7.6872     7.0675 C.ar    
  28 C28            2.0052     7.9546     5.7121 C.ar    
  29 F29            1.9076     8.6907     7.9593 F       
  30 C30            2.4137     5.3583     6.6025 C.ar    
  31 F31            2.6150     4.0967     7.0419 F       
  32 H32            3.3437     1.8552    -0.0203 H       
  33 H33            3.2319    -0.5984    -0.0326 H       
  34 H34            0.4298     4.0012     0.0188 H       
  35 H35            3.1169     3.9062     0.8831 H       
  36 H36            3.1002     3.9152    -0.8968 H       
  37 H37            1.7674     9.3204     3.6085 H       
  38 H38            1.6744     9.8015     1.2129 H       
  39 H39           -1.2479    -1.7774     0.0042 H       
  40 H40           -3.2420     1.9974     0.0439 H       
  41 H41           -5.6406    -0.4006     0.0534 H       
  42 H42           -4.7411     0.8522     0.9420 H       
  43 H43           -4.7579     0.8623    -0.8378 H       
  44 H44            2.4821     4.8105     4.5364 H       
  45 H45            2.3000     6.1857     8.5719 H       
  46 H46            1.8485     8.9656     5.3660 H       
@<TRIPOS>BOND
   1    1    2 ar
   2    1    3 ar
   3    1   22 ar
   4    2   19 ar
   5    2    6 ar
   6    3    4 ar
   7    3    7 1
   8    4    5 ar
   9    4   32 1
  10    5    6 ar
  11    5   33 1
  12    7    8 1
  13    7   34 1
  14    8    9 1
  15    8   35 1
  16    8   36 1
  17    9   10 1
  18    9   13 2
  19   10   11 1
  20   10   14 1
  21   11   12 2
  22   11   17 1
  23   12   13 1
  24   14   15 2
  25   15   16 1
  26   15   18 1
  27   16   17 2
  28   16   37 1
  29   17   38 1
  30   18   25 ar
  31   18   28 ar
  32   19   20 ar
  33   19   39 1
  34   20   21 ar
  35   20   23 1
  36   21   22 ar
  37   21   40 1
  38   23   24 1
  39   24   41 1
  40   24   42 1
  41   24   43 1
  42   25   30 ar
  43   25   44 1
  44   26   27 ar
  45   26   30 ar
  46   26   45 1
  47   27   28 ar
  48   27   29 1
  49   28   46 1
  50   30   31 1

#	End of record

