#	Name: ASD01150027
#	Creating user name:	WinNT
#	Creation time:	15. 06. 2019 19:03

#	Modifying user name:	WinNT
#	Modification time:	15. 06. 2019 19:03

#	Program:	/corina/corina34_cracker 3.40 0067  02.08.2006

@<TRIPOS>MOLECULE
ASD01150027
  44   46    0    0    0
SMALL
NO_CHARGES


@<TRIPOS>ATOM
   1 N1            -0.0160     1.3268     0.0093 N.ar    
   2 C2             0.0021    -0.0041     0.0020 C.ar    
   3 C3             1.2273    -0.6650    -0.0132 C.ar    
   4 C4             2.3917     0.0979    -0.0203 C.ar    
   5 N5             2.2965     1.4255    -0.0122 N.ar    
   6 C6             1.1128     2.0207     0.0023 C.ar    
   7 S7             1.0377     3.7811     0.0119 S.3     
   8 C8            -0.7565     4.0191     0.0305 C.3     
   9 I9             1.3165    -2.7580    -0.0246 I       
  10 C10            6.0242    -0.5062     0.5538 C.3     
  11 C11            4.8535     0.2951    -0.0422 C.3     
  12 C12            5.2494     0.6410    -1.4926 C.3     
  13 C13            6.2917    -0.4408    -1.8701 C.3     
  14 C14            7.0906    -0.6192    -0.5552 C.3     
  15 N15            3.6343    -0.5170    -0.0350 N.pl3   
  16 C16           -4.4642     0.3899     1.3320 C.3     
  17 C17           -4.8469    -0.6431     0.2521 C.3     
  18 C18           -3.5774    -0.9020    -0.5780 C.3     
  19 C19           -2.4675    -0.0173     0.0265 C.3     
  20 C20           -2.9310     0.2309     1.4834 C.3     
  21 N21           -1.1836    -0.7227     0.0099 N.pl3   
  22 H22           -1.1929     3.5620    -0.8576 H       
  23 H23           -1.1756     3.5530     0.9223 H       
  24 H24           -0.9814     5.0856     0.0380 H       
  25 H25            6.4359     0.0192     1.4155 H       
  26 H26            5.6852    -1.4993     0.8484 H       
  27 H27            4.6971     1.2094     0.5302 H       
  28 H28            4.3818     0.5805    -2.1496 H       
  29 H29            5.6962     1.6341    -1.5395 H       
  30 H30            5.7983    -1.3710    -2.1516 H       
  31 H31            6.9409    -0.0886    -2.6717 H       
  32 H32            7.8348     0.1703    -0.4508 H       
  33 H33            7.5667    -1.5994    -0.5281 H       
  34 H34            3.6963    -1.4850    -0.0404 H       
  35 H35           -4.7122     1.3982     1.0004 H       
  36 H36           -4.9661     0.1624     2.2724 H       
  37 H37           -5.1809    -1.5681     0.7219 H       
  38 H38           -5.6347    -0.2421    -0.3857 H       
  39 H39           -3.2953    -1.9528    -0.5110 H       
  40 H40           -3.7490    -0.6267    -1.6186 H       
  41 H41           -2.3931     0.9252    -0.5160 H       
  42 H42           -2.4853     1.1429     1.8804 H       
  43 H43           -2.6919    -0.6241     2.1158 H       
  44 H44           -1.1630    -1.6924     0.0045 H       
@<TRIPOS>BOND
   1    1    2 ar
   2    1    6 ar
   3    2    3 ar
   4    2   21 1
   5    3    4 ar
   6    3    9 1
   7    4    5 ar
   8    4   15 1
   9    5    6 ar
  10    6    7 1
  11    7    8 1
  12    8   22 1
  13    8   23 1
  14    8   24 1
  15   10   11 1
  16   10   14 1
  17   10   25 1
  18   10   26 1
  19   11   12 1
  20   11   15 1
  21   11   27 1
  22   12   13 1
  23   12   28 1
  24   12   29 1
  25   13   14 1
  26   13   30 1
  27   13   31 1
  28   14   32 1
  29   14   33 1
  30   15   34 1
  31   16   17 1
  32   16   20 1
  33   16   35 1
  34   16   36 1
  35   17   18 1
  36   17   37 1
  37   17   38 1
  38   18   19 1
  39   18   39 1
  40   18   40 1
  41   19   20 1
  42   19   21 1
  43   19   41 1
  44   20   42 1
  45   20   43 1
  46   21   44 1

#	End of record

