#	Name: ASD00870004
#	Creating user name:	WinNT
#	Creation time:	15. 06. 2019 18:53

#	Modifying user name:	WinNT
#	Modification time:	15. 06. 2019 18:53

#	Program:	/corina/corina34_cracker 3.40 0067  02.08.2006

@<TRIPOS>MOLECULE
ASD00870004
  46   48    0    0    0
SMALL
NO_CHARGES


@<TRIPOS>ATOM
   1 C1            -0.0173     1.4248     0.0099 C.3     
   2 C2             1.4181     1.9544    -0.0010 C.3     
   3 C3             1.4245     3.4933     0.1334 C.3     
   4 O4             1.6779     3.8766     1.4866 O.3     
   5 C5             2.5832     3.9454    -0.7833 C.3     
   6 C6             3.1397     2.6261    -1.3632 C.3     
   7 O7             2.0408     1.6928    -1.2776 O.3     
   8 N8             3.5429     2.8126    -2.7592 N.pl3   
   9 C9             2.7855     2.5437    -3.8603 C.2     
  10 N10            3.4549     2.8262    -4.9400 N.2     
  11 C11            4.6807     3.2930    -4.6013 C.ar    
  12 C12            5.8008     3.7426    -5.3215 C.ar    
  13 N13            5.7891     3.7688    -6.7051 N.pl3   
  14 N14            6.8712     4.1422    -4.6429 N.ar    
  15 C15            6.8911     4.1211    -3.3225 C.ar    
  16 N16            5.8665     3.7082    -2.6070 N.ar    
  17 C17            4.7497     3.2955    -3.1981 C.ar    
  18 P18           -1.3361    -0.8992     0.0100 P.3     
  19 O19           -2.2020    -0.5022    -1.1227 O.2     
  20 O20            0.0021    -0.0041     0.0020 O.3     
  21 O21           -2.1257    -0.6718     1.3945 O.3     
  22 O22           -0.9428    -2.4537    -0.1344 O.3     
  23 P23           -1.7459    -3.7731    -0.5887 P.3     
  24 O24           -3.1181    -3.7302    -0.0358 O.2     
  25 O25           -1.8167    -3.8314    -2.1961 O.3     
  26 O26           -0.9857    -5.0807    -0.0372 O.3     
  27 P27           -1.3983    -6.6282     0.1274 P.3     
  28 O28           -2.0790    -7.0908    -1.1026 O.2     
  29 O29           -0.0760    -7.5129     0.3741 O.3     
  30 O30           -2.3928    -6.7877     1.3834 O.3     
  31 H31           -0.5275     1.7763     0.9067 H       
  32 H32           -0.5445     1.7859    -0.8732 H       
  33 H33            1.9953     1.5007     0.8047 H       
  34 H34            0.4780     3.9106    -0.2099 H       
  35 H35            1.6929     4.8331     1.6281 H       
  36 H36            2.2103     4.5864    -1.5821 H       
  37 H37            3.3492     4.4613    -0.2044 H       
  38 H38            3.9826     2.2755    -0.7675 H       
  39 H39            1.7787     2.1534    -3.8397 H       
  40 H40            5.0016     3.4747    -7.1891 H       
  41 H41            6.5684     4.0812    -7.1908 H       
  42 H42            7.7817     4.4548    -2.8107 H       
  43 H43           -1.6172    -0.9117     2.1813 H       
  44 H44           -0.9515    -3.8615    -2.6271 H       
  45 H45           -0.2497    -8.4580     0.4824 H       
  46 H46           -2.0119    -6.5028     2.2254 H       
@<TRIPOS>BOND
   1    1   20 1
   2    1    2 1
   3    1   31 1
   4    1   32 1
   5    2    3 1
   6    2    7 1
   7    2   33 1
   8    3    4 1
   9    3    5 1
  10    3   34 1
  11    4   35 1
  12    5    6 1
  13    5   36 1
  14    5   37 1
  15    6    7 1
  16    6    8 1
  17    6   38 1
  18    8    9 1
  19    8   17 1
  20    9   10 2
  21    9   39 1
  22   10   11 1
  23   11   12 ar
  24   11   17 ar
  25   12   13 1
  26   12   14 ar
  27   13   40 1
  28   13   41 1
  29   14   15 ar
  30   15   16 ar
  31   15   42 1
  32   16   17 ar
  33   18   19 2
  34   18   20 1
  35   18   21 1
  36   18   22 1
  37   21   43 1
  38   22   23 1
  39   23   24 2
  40   23   25 1
  41   23   26 1
  42   25   44 1
  43   26   27 1
  44   27   28 2
  45   27   29 1
  46   27   30 1
  47   29   45 1
  48   30   46 1

#	End of record

