#	Name: ASD01917931
#	Creating user name:	WinNT
#	Creation time:	15. 06. 2019 20:10

#	Modifying user name:	WinNT
#	Modification time:	15. 06. 2019 20:10

#	Program:	/corina/corina34_cracker 3.40 0067  02.08.2006

@<TRIPOS>MOLECULE
ASD01917931
  40   43    0    0    0
SMALL
NO_CHARGES


@<TRIPOS>ATOM
   1 N1             4.8254    -0.4041    -2.1615 N.ar    
   2 C2             5.2914     0.2962    -3.1770 C.ar    
   3 C3             5.1779     1.6760    -3.1998 C.ar    
   4 C4             4.5639     2.3219    -2.1360 C.ar    
   5 C5             4.0843     1.5504    -1.0828 C.ar    
   6 C6             4.2361     0.1718    -1.1328 C.ar    
   7 F7             5.6593     2.3846    -4.2444 F       
   8 O8             3.4762     2.1384    -0.0192 O.3     
   9 C9             3.4556     3.4974     0.0336 C.2     
  10 N10            2.2030     5.5091    -0.0269 N.pl3   
  11 C11            2.2722     4.1534    -0.0740 C.2     
  12 C12            4.6547     4.1997     0.2039 C.2     
  13 C13            4.6255     5.5889     0.2573 C.2     
  14 C14            3.3323     6.2609     0.1322 C.2     
  15 C15            5.8648     6.3638     0.4358 C.2     
  16 N16            5.8168     7.7098     0.4853 N.am    
  17 C17            6.9857     8.4406     0.6537 C.2     
  18 O18            6.9319     5.7891     0.5387 O.2     
  19 N19            1.1392     6.4194    -0.1106 N.2     
  20 C20            1.6527     7.6224    -0.0096 C.2     
  21 N21            2.9680     7.5334     0.1418 N.2     
  22 S22            8.5487     7.7656     0.8105 S.3     
  23 C23            9.2419     9.3784     0.9584 C.2     
  24 C24            8.2480    10.2651     0.8774 C.2     
  25 N25            7.0513     9.7342     0.7092 N.2     
  26 C26            0.8678     8.9082    -0.0495 C.3     
  27 C27            8.4741    11.7524     0.9656 C.3     
  28 H28            5.7680    -0.2131    -4.0015 H       
  29 H29            4.4615     3.3970    -2.1260 H       
  30 H30            3.8673    -0.4359    -0.3197 H       
  31 H31            1.3635     3.5836    -0.2005 H       
  32 H32            5.5910     3.6689     0.2930 H       
  33 H33            4.9659     8.1680     0.4033 H       
  34 H34           10.2885     9.6092     1.0917 H       
  35 H35            0.5657     9.1810     0.9617 H       
  36 H36            1.4884     9.6999    -0.4693 H       
  37 H37           -0.0185     8.7738    -0.6697 H       
  38 H38            8.6493    12.1531    -0.0328 H       
  39 H39            7.5947    12.2286     1.3991 H       
  40 H40            9.3420    11.9513     1.5943 H       
@<TRIPOS>BOND
   1    1    2 ar
   2    1    6 ar
   3    2    3 ar
   4    2   28 1
   5    3    4 ar
   6    3    7 1
   7    4    5 ar
   8    4   29 1
   9    5    6 ar
  10    5    8 1
  11    6   30 1
  12    8    9 1
  13    9   12 1
  14    9   11 2
  15   10   11 1
  16   10   19 1
  17   10   14 1
  18   11   31 1
  19   12   13 2
  20   12   32 1
  21   13   14 1
  22   13   15 1
  23   14   21 2
  24   15   16 am
  25   15   18 2
  26   16   17 1
  27   16   33 1
  28   17   22 1
  29   17   25 2
  30   19   20 2
  31   20   21 1
  32   20   26 1
  33   22   23 1
  34   23   24 2
  35   23   34 1
  36   24   25 1
  37   24   27 1
  38   26   35 1
  39   26   36 1
  40   26   37 1
  41   27   38 1
  42   27   39 1
  43   27   40 1

#	End of record

