#	Name: ASD01882172
#	Creating user name:	WinNT
#	Creation time:	15. 06. 2019 19:44

#	Modifying user name:	WinNT
#	Modification time:	15. 06. 2019 19:44

#	Program:	/corina/corina34_cracker 3.40 0067  02.08.2006

@<TRIPOS>MOLECULE
ASD01882172
  45   48    0    0    0
SMALL
NO_CHARGES


@<TRIPOS>ATOM
   1 C1             0.3519     1.7900     0.1598 C.2     
   2 C2             0.3636     0.4750     0.6481 C.2     
   3 C3            -0.7758    -0.0152     1.3202 C.2     
   4 C4            -1.8634     0.7583     1.4954 C.2     
   5 N5            -1.9177     2.0424     1.0364 N.pl3   
   6 C6            -0.8502     2.5975     0.3783 C.2     
   7 C7            -2.8929     3.0043     1.0923 C.2     
   8 C8            -2.4072     4.1005     0.4728 C.2     
   9 N9            -1.1674     3.8361     0.0471 N.2     
  10 C10            1.5514    -0.3839     0.4610 C.ar    
  11 C11           -4.2528     2.8638     1.7263 C.3     
  12 C12            1.5344    -1.4066    -0.4939 C.ar    
  13 C13            2.6469    -2.2056    -0.6648 C.ar    
  14 C14            3.7804    -1.9948     0.1094 C.ar    
  15 C15            3.8000    -0.9798     1.0585 C.ar    
  16 C16            2.6962    -0.1738     1.2325 C.ar    
  17 O17            4.8729    -2.7831    -0.0611 O.3     
  18 C18            4.9787    -3.8996     0.7034 C.ar    
  19 C19            3.9459    -4.2818     1.5560 C.ar    
  20 C20           -5.2744     2.4658     0.6591 C.3     
  21 C21            4.0920    -5.4235     2.3170 C.ar    
  22 N22            5.1919    -6.1487     2.2437 N.ar    
  23 C23            6.1921    -5.8193     1.4481 C.ar    
  24 C24            6.1207    -4.6956     0.6511 C.ar    
  25 F25            0.4314    -1.6118    -1.2466 F       
  26 C26            2.9818    -5.8473     3.2437 C.3     
  27 C27            1.4860     2.3297    -0.5280 C.1     
  28 N28            2.3856     2.7579    -1.0737 N.1     
  29 H29           -0.7756    -1.0264     1.6995 H       
  30 H30           -2.7183     0.3506     2.0143 H       
  31 H31           -2.9309     5.0364     0.3453 H       
  32 H32           -4.2161     2.0954     2.4986 H       
  33 H33           -4.5454     3.8141     2.1729 H       
  34 H34            2.6357    -2.9957    -1.4010 H       
  35 H35            4.6838    -0.8200     1.6584 H       
  36 H36            2.7134     0.6144     1.9706 H       
  37 H37            3.0432    -3.6924     1.6209 H       
  38 H38           -4.9818     1.5155     0.2125 H       
  39 H39           -6.2580     2.3642     1.1177 H       
  40 H40           -5.3112     3.2342    -0.1131 H       
  41 H41            7.0757    -6.4396     1.4175 H       
  42 H42            6.9426    -4.4318     0.0020 H       
  43 H43            2.2960    -6.5065     2.7115 H       
  44 H44            3.4038    -6.3756     4.0986 H       
  45 H45            2.4424    -4.9661     3.5913 H       
@<TRIPOS>BOND
   1    1    2 2
   2    1   27 1
   3    1    6 1
   4    2    3 1
   5    2   10 1
   6    3    4 2
   7    3   29 1
   8    4    5 1
   9    4   30 1
  10    5    6 1
  11    5    7 1
  12    6    9 2
  13    7    8 2
  14    7   11 1
  15    8    9 1
  16    8   31 1
  17   10   12 ar
  18   10   16 ar
  19   11   20 1
  20   11   32 1
  21   11   33 1
  22   12   13 ar
  23   12   25 1
  24   13   14 ar
  25   13   34 1
  26   14   15 ar
  27   14   17 1
  28   15   16 ar
  29   15   35 1
  30   16   36 1
  31   17   18 1
  32   18   19 ar
  33   18   24 ar
  34   19   21 ar
  35   19   37 1
  36   20   38 1
  37   20   39 1
  38   20   40 1
  39   21   22 ar
  40   21   26 1
  41   22   23 ar
  42   23   24 ar
  43   23   41 1
  44   24   42 1
  45   26   43 1
  46   26   44 1
  47   26   45 1
  48   27   28 3

#	End of record

