#	Name: ASD01903131
#	Creating user name:	WinNT
#	Creation time:	15. 06. 2019 19:54

#	Modifying user name:	WinNT
#	Modification time:	15. 06. 2019 19:54

#	Program:	/corina/corina34_cracker 3.40 0067  02.08.2006

@<TRIPOS>MOLECULE
ASD01903131
  48   51    0    0    0
SMALL
NO_CHARGES


@<TRIPOS>ATOM
   1 C1             0.2318     0.8419    -1.4862 C.ar    
   2 C2             0.1327    -0.2830    -0.6828 C.ar    
   3 C3             1.2326    -0.6890     0.0564 C.ar    
   4 N4             2.3645    -0.0218     0.0049 N.ar    
   5 C5             2.5012     1.0604    -0.7517 C.ar    
   6 C6             1.4374     1.5253    -1.5213 C.ar    
   7 C7             3.7958     1.7799    -0.7774 C.2     
   8 N8             4.8287     1.3353    -0.0346 N.am    
   9 O9             3.9264     2.7712    -1.4682 O.2     
  10 C10            6.0782     1.9552    -0.1325 C.ar    
  11 C11            6.1600     3.3280    -0.3289 C.ar    
  12 C12            7.3947     3.9403    -0.4256 C.ar    
  13 C13            8.5507     3.1898    -0.3274 C.ar    
  14 C14            8.4751     1.8178    -0.1311 C.ar    
  15 C15            7.2386     1.2005    -0.0278 C.ar    
  16 O16            9.6129     1.0810    -0.0347 O.3     
  17 C17            9.4600    -0.3254     0.1670 C.3     
  18 S18           10.1229     3.9755    -0.4520 S.o2    
  19 N19           10.8732     3.8060     1.0145 N.am    
  20 O20           10.8804     3.2121    -1.3808 O.2     
  21 O21            9.8661     5.3637    -0.6134 O.2     
  22 C22           11.7001     2.7397     1.3713 C.ar    
  23 C23           12.1823     2.8766     2.6635 C.ar    
  24 C24           11.6337     4.1588     3.2480 C.3     
  25 C25           10.7709     4.7569     2.1247 C.3     
  26 C26           12.0742     1.6209     0.6234 C.ar    
  27 C27           12.9107     0.6698     1.1666 C.ar    
  28 C28           13.3859     0.8157     2.4572 C.ar    
  29 C29           13.0207     1.9204     3.2036 C.ar    
  30 H30           -0.6097     1.1759    -2.0750 H       
  31 H31           -0.7927    -0.8376    -0.6329 H       
  32 H32            1.1588    -1.5652     0.6836 H       
  33 H33            1.5501     2.4057    -2.1366 H       
  34 H34            4.7053     0.5852     0.5680 H       
  35 H35            5.2580     3.9168    -0.4063 H       
  36 H36            7.4564     5.0077    -0.5787 H       
  37 H37            7.1779     0.1331     0.1249 H       
  38 H38           10.4429    -0.7929     0.2262 H       
  39 H39            8.9170    -0.5023     1.0954 H       
  40 H40            8.9036    -0.7537    -0.6667 H       
  41 H41           11.0253     3.9463     4.1271 H       
  42 H42           12.4464     4.8393     3.5022 H       
  43 H43           11.1568     5.7328     1.8302 H       
  44 H44            9.7337     4.8418     2.4490 H       
  45 H45           11.7060     1.5005    -0.3848 H       
  46 H46           13.1958    -0.1928     0.5825 H       
  47 H47           14.0413     0.0690     2.8805 H       
  48 H48           13.3912     2.0360     4.2115 H       
@<TRIPOS>BOND
   1    1    2 ar
   2    1    6 ar
   3    1   30 1
   4    2    3 ar
   5    2   31 1
   6    3    4 ar
   7    3   32 1
   8    4    5 ar
   9    5    6 ar
  10    5    7 1
  11    6   33 1
  12    7    8 am
  13    7    9 2
  14    8   10 1
  15    8   34 1
  16   10   11 ar
  17   10   15 ar
  18   11   12 ar
  19   11   35 1
  20   12   13 ar
  21   12   36 1
  22   13   14 ar
  23   13   18 1
  24   14   15 ar
  25   14   16 1
  26   15   37 1
  27   16   17 1
  28   17   38 1
  29   17   39 1
  30   17   40 1
  31   18   19 am
  32   18   20 2
  33   18   21 2
  34   19   22 1
  35   19   25 1
  36   22   23 ar
  37   22   26 ar
  38   23   24 1
  39   23   29 ar
  40   24   25 1
  41   24   41 1
  42   24   42 1
  43   25   43 1
  44   25   44 1
  45   26   27 ar
  46   26   45 1
  47   27   28 ar
  48   27   46 1
  49   28   29 ar
  50   28   47 1
  51   29   48 1

#	End of record

