#	Name: ASD03331308
#	Creating user name:	WinNT
#	Creation time:	15. 06. 2019 20:38

#	Modifying user name:	WinNT
#	Modification time:	15. 06. 2019 20:38

#	Program:	/corina/corina34_cracker 3.40 0067  02.08.2006

@<TRIPOS>MOLECULE
ASD03331308
  57   59    0    0    0
SMALL
NO_CHARGES


@<TRIPOS>ATOM
   1 C1            -1.0106     1.7244     0.8578 C.2     
   2 C2            -0.6574     0.4301     0.6543 C.2     
   3 C3             0.7109    -0.1261     0.9658 C.3     
   4 C4             1.6592     1.0664     1.1658 C.3     
   5 C5             0.9814     2.0914     2.0801 C.3     
   6 N6            -0.1564     2.7089     1.3823 N.3     
   7 N7            -2.7822     0.7016     0.0228 N.2     
   8 N8            -1.7339    -0.2232     0.1400 N.am    
   9 C9            -2.3557     1.8696     0.4573 C.2     
  10 C10           -1.7842    -1.5271    -0.1974 C.2     
  11 O11           -0.8052    -2.2313    -0.0491 O.2     
  12 N12           -2.9206    -2.0499    -0.6992 N.am    
  13 C13           -3.1484     3.1219     0.5074 C.ar    
  14 C14           -2.7106     4.2555    -0.1794 C.ar    
  15 C15           -3.4526     5.4203    -0.1297 C.ar    
  16 C16           -4.6285     5.4640     0.6004 C.ar    
  17 C17           -5.0673     4.3399     1.2850 C.ar    
  18 C18           -4.3355     3.1689     1.2357 C.ar    
  19 F19           -6.2150     4.3885     1.9960 F       
  20 F20           -5.3505     6.6050     0.6465 F       
  21 F21           -1.5631     4.2142    -0.8913 F       
  22 C22           -0.8876     3.6199     2.2731 C.3     
  23 C23           -4.0376    -3.6740    -2.1147 C.2     
  24 C24           -2.9754    -3.4672    -1.0660 C.3     
  25 C25           -3.3113    -4.3017     0.1717 C.3     
  26 C26           -4.6073    -3.7843     0.7992 C.3     
  27 O27           -4.9874    -2.9221    -2.1724 O.2     
  28 N28           -3.9321    -4.6946    -2.9887 N.am    
  29 C29           -5.0193    -4.9664    -3.9322 C.3     
  30 C30           -3.4901    -5.7661    -0.2337 C.3     
  31 C31           -2.1725    -4.1890     1.1872 C.3     
  32 H32            0.6693    -0.7229     1.8770 H       
  33 H33            1.0587    -0.7405     0.1354 H       
  34 H34            2.5856     0.7229     1.6261 H       
  35 H35            1.8771     1.5253     0.2014 H       
  36 H36            0.6263     1.5929     2.9821 H       
  37 H37            1.7004     2.8635     2.3540 H       
  38 H38           -3.7022    -1.4878    -0.8176 H       
  39 H39           -3.1148     6.2979    -0.6608 H       
  40 H40           -4.6803     2.2929     1.7650 H       
  41 H41           -1.4366     3.0399     3.0148 H       
  42 H42           -0.1813     4.2793     2.7776 H       
  43 H43           -1.5872     4.2166     1.6878 H       
  44 H44           -2.0085    -3.7777    -1.4620 H       
  45 H45           -5.4186    -3.8645     0.0757 H       
  46 H46           -4.8466    -4.3788     1.6809 H       
  47 H47           -4.4799    -2.7410     1.0880 H       
  48 H48           -3.1363    -5.2492    -2.9929 H       
  49 H49           -4.7557    -5.8223    -4.5535 H       
  50 H50           -5.9332    -5.1859    -3.3802 H       
  51 H51           -5.1779    -4.0932    -4.5650 H       
  52 H52           -2.6013    -6.1073    -0.7644 H       
  53 H53           -3.6367    -6.3748     0.6585 H       
  54 H54           -4.3598    -5.8594    -0.8841 H       
  55 H55           -2.0451    -3.1457     1.4761 H       
  56 H56           -2.4119    -4.7835     2.0690 H       
  57 H57           -1.2493    -4.5576     0.7402 H       
@<TRIPOS>BOND
   1    1    2 2
   2    1    6 1
   3    1    9 1
   4    2    3 1
   5    2    8 1
   6    3    4 1
   7    3   32 1
   8    3   33 1
   9    4    5 1
  10    4   34 1
  11    4   35 1
  12    5    6 1
  13    5   36 1
  14    5   37 1
  15    6   22 1
  16    7    8 1
  17    7    9 2
  18    8   10 am
  19    9   13 1
  20   10   11 2
  21   10   12 am
  22   12   24 1
  23   12   38 1
  24   13   14 ar
  25   13   18 ar
  26   14   15 ar
  27   14   21 1
  28   15   16 ar
  29   15   39 1
  30   16   17 ar
  31   16   20 1
  32   17   18 ar
  33   17   19 1
  34   18   40 1
  35   22   41 1
  36   22   42 1
  37   22   43 1
  38   23   27 2
  39   23   28 am
  40   23   24 1
  41   24   25 1
  42   24   44 1
  43   25   26 1
  44   25   30 1
  45   25   31 1
  46   26   45 1
  47   26   46 1
  48   26   47 1
  49   28   29 1
  50   28   48 1
  51   29   49 1
  52   29   50 1
  53   29   51 1
  54   30   52 1
  55   30   53 1
  56   30   54 1
  57   31   55 1
  58   31   56 1
  59   31   57 1

#	End of record

