#	Name: ASD09116071
#	Creating user name:	WinNT
#	Creation time:	15. 06. 2019 21:20

#	Modifying user name:	WinNT
#	Modification time:	15. 06. 2019 21:20

#	Program:	/corina/corina34_cracker 3.40 0067  02.08.2006

@<TRIPOS>MOLECULE
ASD09116071
  74   79    0    0    0
SMALL
NO_CHARGES


@<TRIPOS>ATOM
   1 C1            -0.3314     1.2804    -1.3415 C.ar    
   2 N2            -0.2598    -0.0951    -1.1094 N.pl3   
   3 N3             0.9053    -0.8747    -1.0280 N.2     
   4 C4             0.5247    -2.1088    -0.7991 C.2     
   5 N5            -0.8112    -2.1479    -0.7322 N.2     
   6 C6            -1.2994    -0.9393    -0.9125 C.2     
   7 N7            -2.6375    -0.5943    -0.9099 N.pl3   
   8 N8             1.3755    -3.2041    -0.6498 N.pl3   
   9 C9             0.7481     2.1032    -1.0122 C.ar    
  10 N10           -1.4210     1.8070    -1.8794 N.ar    
  11 N11           -1.5373     3.0678    -2.1068 N.ar    
  12 C12           -0.5756     3.9122    -1.8141 C.ar    
  13 C13            0.6148     3.4528    -1.2627 C.ar    
  14 C14            0.8524    -4.4536    -0.2951 C.ar    
  15 C15            1.4846    -5.6159    -0.7170 C.ar    
  16 C16            0.9681    -6.8494    -0.3662 C.ar    
  17 C17           -0.1840    -6.9250     0.4087 C.ar    
  18 C18           -0.8146    -5.7625     0.8295 C.ar    
  19 C19           -0.2951    -4.5303     0.4832 C.ar    
  20 N20           -0.7085    -8.1749     0.7644 N.3     
  21 C21           -0.7506    -8.3320     2.2239 C.3     
  22 C22            0.0509    -9.2628     0.1350 C.3     
  23 C23           -0.6344   -10.5999     0.4259 C.3     
  24 C24           -0.7061   -10.8123     1.9406 C.3     
  25 C25           -1.4599    -9.6413     2.5771 C.3     
  26 C26           -1.4444   -12.1186     2.2393 C.3     
  27 C27           -0.7043     5.3954    -2.0378 C.3     
  28 C28           -0.0753     5.8341    -3.3208 C.3     
  29 C29            1.4325     5.9876    -3.3655 C.3     
  30 C30            2.1104     4.6068    -3.4310 C.3     
  31 C31            2.7744     4.3389    -2.0516 C.3     
  32 C32            1.7086     4.4393    -0.9677 C.3     
  33 F33            1.5821    -7.9807    -0.7765 F       
  34 C34           -0.7006   -13.3031     1.5978 C.3     
  35 C35           -0.2917   -14.2431     2.7506 C.3     
  36 C36           -1.2966   -13.9153     3.8827 C.3     
  37 C37           -1.4615   -12.3801     3.7596 C.3     
  38 H38           -3.3136    -1.2748    -0.7658 H       
  39 H39           -2.9008     0.3284    -1.0520 H       
  40 H40            2.3294    -3.1001    -0.7917 H       
  41 H41            1.6509     1.6988    -0.5786 H       
  42 H42            2.3791    -5.5563    -1.3191 H       
  43 H43           -1.7094    -5.8212     1.4314 H       
  44 H44           -0.7864    -3.6261     0.8110 H       
  45 H45            0.2660    -8.3523     2.6164 H       
  46 H46           -1.2929    -7.4951     2.6637 H       
  47 H47            0.0907    -9.1019    -0.9424 H       
  48 H48            1.0638    -9.2788     0.5373 H       
  49 H49           -1.6426   -10.5898     0.0117 H       
  50 H50           -0.0619   -11.4086    -0.0283 H       
  51 H51            0.3031   -10.8614     2.3496 H       
  52 H52           -1.4771    -9.7652     3.6599 H       
  53 H53           -2.4810    -9.6161     2.1968 H       
  54 H54           -2.4639   -12.0667     1.8572 H       
  55 H55           -1.7617     5.6595    -2.0546 H       
  56 H56           -0.2243     5.9201    -1.2117 H       
  57 H57           -0.3580     5.1160    -4.0906 H       
  58 H58           -0.5140     6.7940    -3.5934 H       
  59 H59            1.7100     6.5676    -4.2457 H       
  60 H60            1.7683     6.5120    -2.4710 H       
  61 H61            1.3650     3.8389    -3.6374 H       
  62 H62            2.8698     4.6050    -4.2130 H       
  63 H63            3.2106     3.3400    -2.0439 H       
  64 H64            3.5523     5.0807    -1.8703 H       
  65 H65            1.2958     5.4479    -0.9544 H       
  66 H66            2.1520     4.2123     0.0019 H       
  67 H67           -1.3594   -13.8266     0.9050 H       
  68 H68            0.1863   -12.9472     1.0736 H       
  69 H69           -0.3874   -15.2851     2.4454 H       
  70 H70            0.7279   -14.0310     3.0724 H       
  71 H71           -2.2474   -14.4207     3.7135 H       
  72 H72           -0.8835   -14.1827     4.8553 H       
  73 H73           -0.6308   -11.8672     4.2443 H       
  74 H74           -2.4109   -12.0626     4.1907 H       
@<TRIPOS>BOND
   1    1    2 1
   2    1    9 ar
   3    1   10 ar
   4    2    3 1
   5    2    6 1
   6    3    4 2
   7    4    5 1
   8    4    8 1
   9    5    6 2
  10    6    7 1
  11    7   38 1
  12    7   39 1
  13    8   14 1
  14    8   40 1
  15    9   13 ar
  16    9   41 1
  17   10   11 ar
  18   11   12 ar
  19   12   13 ar
  20   12   27 1
  21   13   32 1
  22   14   15 ar
  23   14   19 ar
  24   15   16 ar
  25   15   42 1
  26   16   17 ar
  27   16   33 1
  28   17   18 ar
  29   17   20 1
  30   18   19 ar
  31   18   43 1
  32   19   44 1
  33   20   21 1
  34   20   22 1
  35   21   25 1
  36   21   45 1
  37   21   46 1
  38   22   23 1
  39   22   47 1
  40   22   48 1
  41   23   24 1
  42   23   49 1
  43   23   50 1
  44   24   25 1
  45   24   26 1
  46   24   51 1
  47   25   52 1
  48   25   53 1
  49   26   34 1
  50   26   37 1
  51   26   54 1
  52   27   28 1
  53   27   55 1
  54   27   56 1
  55   28   29 1
  56   28   57 1
  57   28   58 1
  58   29   30 1
  59   29   59 1
  60   29   60 1
  61   30   31 1
  62   30   61 1
  63   30   62 1
  64   31   32 1
  65   31   63 1
  66   31   64 1
  67   32   65 1
  68   32   66 1
  69   34   35 1
  70   34   67 1
  71   34   68 1
  72   35   36 1
  73   35   69 1
  74   35   70 1
  75   36   37 1
  76   36   71 1
  77   36   72 1
  78   37   73 1
  79   37   74 1

#	End of record

