#	Name: ASD01940073
#	Creating user name:	WinNT
#	Creation time:	15. 06. 2019 20:11

#	Modifying user name:	WinNT
#	Modification time:	15. 06. 2019 20:11

#	Program:	/corina/corina34_cracker 3.40 0067  02.08.2006

@<TRIPOS>MOLECULE
ASD01940073
  35   36    0    0    0
SMALL
NO_CHARGES


@<TRIPOS>ATOM
   1 F1             1.8534     1.4522     2.1324 F       
   2 C2             1.0158     2.0890     1.2849 C.ar    
   3 C3             1.3427     2.2036    -0.0597 C.ar    
   4 C4             0.4754     2.8616    -0.9302 C.ar    
   5 C5            -0.7096     3.3985    -0.4498 C.ar    
   6 C6            -1.0299     3.2814     0.8902 C.ar    
   7 C7            -0.1729     2.6233     1.7558 C.ar    
   8 N8             2.5419     1.6596    -0.5403 N.pl3   
   9 N9             0.8004     2.9806    -2.2881 N.am    
  10 C10            2.5853     0.3284    -0.9626 C.ar    
  11 C11            1.4308    -0.4434    -0.9517 C.ar    
  12 C12            1.4773    -1.7593    -1.3698 C.ar    
  13 C13            2.6713    -2.3088    -1.7984 C.ar    
  14 C14            3.8238    -1.5439    -1.8105 C.ar    
  15 C15            3.7836    -0.2253    -1.4001 C.ar    
  16 Cl16           5.2302     0.7343    -1.4155 Cl      
  17 F17           -0.4934     2.5068     3.0630 F       
  18 S18            0.3858     4.3501    -3.1217 S.o2    
  19 O19            0.9472     4.1579    -4.4129 O.2     
  20 O20           -1.0197     4.4574    -2.9426 O.2     
  21 C21            1.2430     5.6889    -2.2478 C.3     
  22 F22            2.6223     5.4569    -2.2773 F       
  23 F23            0.9617     6.9086    -2.8726 F       
  24 F24            0.8059     5.7335    -0.9196 F       
  25 C25            2.7175    -3.7448    -2.2532 C.3     
  26 F26            2.4647    -3.8071    -3.6277 F       
  27 F27            3.9834    -4.2778    -1.9872 F       
  28 F28            1.7472    -4.4828    -1.5667 F       
  29 H29           -1.3826     3.9089    -1.1228 H       
  30 H30           -1.9534     3.7004     1.2618 H       
  31 H31            3.3415     2.2073    -0.5798 H       
  32 H32            1.2682     2.2608    -2.7397 H       
  33 H33            0.4977    -0.0154    -0.6164 H       
  34 H34            0.5796    -2.3597    -1.3614 H       
  35 H35            4.7550    -1.9766    -2.1453 H       
@<TRIPOS>BOND
   1    1    2 1
   2    2    3 ar
   3    2    7 ar
   4    3    4 ar
   5    3    8 1
   6    4    5 ar
   7    4    9 1
   8    5    6 ar
   9    5   29 1
  10    6    7 ar
  11    6   30 1
  12    7   17 1
  13    8   10 1
  14    8   31 1
  15    9   18 am
  16    9   32 1
  17   10   11 ar
  18   10   15 ar
  19   11   12 ar
  20   11   33 1
  21   12   13 ar
  22   12   34 1
  23   13   14 ar
  24   13   25 1
  25   14   15 ar
  26   14   35 1
  27   15   16 1
  28   18   19 2
  29   18   20 2
  30   18   21 1
  31   21   22 1
  32   21   23 1
  33   21   24 1
  34   25   26 1
  35   25   27 1
  36   25   28 1

#	End of record

