#	Name: ASD03330183
#	Creating user name:	WinNT
#	Creation time:	15. 06. 2019 20:36

#	Modifying user name:	WinNT
#	Modification time:	15. 06. 2019 20:36

#	Program:	/corina/corina34_cracker 3.40 0067  02.08.2006

@<TRIPOS>MOLECULE
ASD03330183
  53   56    0    0    0
SMALL
NO_CHARGES


@<TRIPOS>ATOM
   1 C1            -0.5991     0.6213    -2.9918 C.ar    
   2 C2            -1.9131     0.8613    -3.3658 C.ar    
   3 C3            -2.9505     0.3526    -2.6095 C.ar    
   4 C4            -2.6781    -0.3997    -1.4749 C.ar    
   5 C5            -1.3627    -0.6400    -1.1013 C.ar    
   6 C6            -0.3262    -0.1351    -1.8614 C.ar    
   7 N7            -3.7305    -0.9158    -0.7067 N.am    
   8 C8            -4.8858    -0.2302    -0.5993 C.2     
   9 N9            -5.9344    -0.7742     0.0495 N.am    
  10 O10           -4.9821     0.8792    -1.0877 O.2     
  11 C11           -7.0966    -0.0221     0.2553 C.ar    
  12 C12           -8.3347    -0.6458     0.2583 C.ar    
  13 C13           -9.4885     0.1067     0.4640 C.ar    
  14 C14           -9.3919     1.4824     0.6656 C.ar    
  15 C15           -8.1550     2.0961     0.6606 C.ar    
  16 C16           -7.0094     1.3493     0.4623 C.ar    
  17 C17          -10.8166    -0.5542     0.4681 C.ar    
  18 N18          -10.8993    -1.8652     0.2748 N.ar    
  19 C19          -11.9633     0.2049     0.6801 C.ar    
  20 C20          -13.1998    -0.4224     0.6824 C.ar    
  21 C21          -13.2495    -1.7895     0.4725 C.ar    
  22 C22          -12.0643    -2.4915     0.2717 C.ar    
  23 N23          -12.1060    -3.8646     0.0598 N.3     
  24 C24          -10.7500    -4.4114    -0.1299 C.3     
  25 C25          -10.5477    -5.5114     0.9334 C.3     
  26 C26          -12.0003    -5.9171     1.2972 C.3     
  27 C27          -12.7377    -4.5581     1.2025 C.3     
  28 O28            0.4220     1.1228    -3.7366 O.3     
  29 C29            1.7500     0.8367    -3.2932 C.3     
  30 H30           -2.1249     1.4465    -4.2485 H       
  31 H31           -3.9736     0.5402    -2.9005 H       
  32 H32           -1.1502    -1.2248    -0.2186 H       
  33 H33            0.6971    -0.3222    -1.5712 H       
  34 H34           -3.6273    -1.7666    -0.2523 H       
  35 H35           -5.8837    -1.6869     0.3738 H       
  36 H36           -8.4044    -1.7121     0.1013 H       
  37 H37          -10.2848     2.0686     0.8254 H       
  38 H38           -8.0824     3.1623     0.8167 H       
  39 H39           -6.0443     1.8341     0.4596 H       
  40 H40          -11.8909     1.2703     0.8413 H       
  41 H41          -14.1050     0.1439     0.8450 H       
  42 H42          -14.1976    -2.3069     0.4686 H       
  43 H43          -10.6590    -4.8394    -1.1282 H       
  44 H44          -10.0098    -3.6230     0.0068 H       
  45 H45          -10.0048    -6.3581     0.5134 H       
  46 H46          -10.0288    -5.1137     1.8055 H       
  47 H47          -12.3994    -6.6291     0.5748 H       
  48 H48          -12.0515    -6.3194     2.3089 H       
  49 H49          -12.5968    -3.9852     2.1190 H       
  50 H50          -13.7993    -4.7149     1.0114 H       
  51 H51            2.4671     1.2943    -3.9747 H       
  52 H52            1.8931     1.2401    -2.2907 H       
  53 H53            1.9027    -0.2424    -3.2759 H       
@<TRIPOS>BOND
   1    1    2 ar
   2    1   28 1
   3    1    6 ar
   4    2    3 ar
   5    2   30 1
   6    3    4 ar
   7    3   31 1
   8    4    5 ar
   9    4    7 1
  10    5    6 ar
  11    5   32 1
  12    6   33 1
  13    7    8 am
  14    7   34 1
  15    8    9 am
  16    8   10 2
  17    9   11 1
  18    9   35 1
  19   11   12 ar
  20   11   16 ar
  21   12   13 ar
  22   12   36 1
  23   13   14 ar
  24   13   17 1
  25   14   15 ar
  26   14   37 1
  27   15   16 ar
  28   15   38 1
  29   16   39 1
  30   17   18 ar
  31   17   19 ar
  32   18   22 ar
  33   19   20 ar
  34   19   40 1
  35   20   21 ar
  36   20   41 1
  37   21   22 ar
  38   21   42 1
  39   22   23 1
  40   23   24 1
  41   23   27 1
  42   24   25 1
  43   24   43 1
  44   24   44 1
  45   25   26 1
  46   25   45 1
  47   25   46 1
  48   26   27 1
  49   26   47 1
  50   26   48 1
  51   27   49 1
  52   27   50 1
  53   28   29 1
  54   29   51 1
  55   29   52 1
  56   29   53 1

#	End of record

