#	Name: ASD01910309
#	Creating user name:	WinNT
#	Creation time:	15. 06. 2019 19:55

#	Modifying user name:	WinNT
#	Modification time:	15. 06. 2019 19:55

#	Program:	/corina/corina34_cracker 3.40 0067  02.08.2006

@<TRIPOS>MOLECULE
ASD01910309
  43   46    0    0    0
SMALL
NO_CHARGES


@<TRIPOS>ATOM
   1 C1             2.3838     0.1574     1.9029 C.ar    
   2 C2             4.3101    -0.8354     0.1739 C.ar    
   3 C3             4.3378     0.5048     0.5528 C.ar    
   4 C4             3.3674     0.9980     1.4220 C.ar    
   5 C5             5.3984     1.4042     0.0327 C.2     
   6 N6             5.5470     2.6855     0.3042 N.2     
   7 N7             6.5812     3.1074    -0.3385 N.pl3   
   8 N8             7.0924     2.1343    -1.0085 N.2     
   9 N9             6.3945     1.0699    -0.7996 N.2     
  10 C10            7.0942     4.4794    -0.3114 C.3     
  11 C11            8.5283     4.4780     0.2229 C.3     
  12 C12            9.0537     5.9141     0.2826 C.3     
  13 C13            9.0644     6.5087    -1.1292 C.3     
  14 N14            7.7191     6.3818    -1.7060 N.am    
  15 C15            7.0827     5.0577    -1.7300 C.3     
  16 C16            7.0808     7.4595    -2.2037 C.2     
  17 C17            7.6777     8.7998    -2.0626 C.2     
  18 O18            6.0125     7.3261    -2.7691 O.2     
  19 C19            2.3607    -1.1724     1.5231 C.ar    
  20 C20            3.3221    -1.6673     0.6606 C.ar    
  21 C21            8.3336     9.3924    -0.8867 C.2     
  22 N22            8.6905    10.5864    -1.2576 N.2     
  23 O23            8.3841    10.8215    -2.4007 O.3     
  24 C24            7.7641     9.8016    -2.9984 C.2     
  25 C25            7.2511     9.7612    -4.4148 C.3     
  26 H26            1.6336     0.5376     2.5804 H       
  27 H27            5.0599    -1.2226    -0.5001 H       
  28 H28            3.3843     2.0362     1.7189 H       
  29 H29            6.4653     5.0903     0.3361 H       
  30 H30            8.5428     4.0442     1.2228 H       
  31 H31            9.1617     3.8867    -0.4384 H       
  32 H32            8.4064     6.5120     0.9242 H       
  33 H33           10.0666     5.9145     0.6852 H       
  34 H34            9.3432     7.5613    -1.0803 H       
  35 H35            9.7799     5.9674    -1.7483 H       
  36 H36            7.6366     4.3981    -2.3980 H       
  37 H37            6.0540     5.1529    -2.0774 H       
  38 H38            1.5894    -1.8268     1.9017 H       
  39 H39            3.2995    -2.7064     0.3672 H       
  40 H40            8.4862     8.9335     0.0789 H       
  41 H41            7.4613    10.7120    -4.9046 H       
  42 H42            7.7457     8.9557    -4.9576 H       
  43 H43            6.1752     9.5867    -4.4067 H       
@<TRIPOS>BOND
   1    1   19 ar
   2    1    4 ar
   3    1   26 1
   4    2    3 ar
   5    2   20 ar
   6    2   27 1
   7    3    4 ar
   8    3    5 1
   9    4   28 1
  10    5    6 2
  11    5    9 1
  12    6    7 1
  13    7    8 1
  14    7   10 1
  15    8    9 2
  16   10   11 1
  17   10   15 1
  18   10   29 1
  19   11   12 1
  20   11   30 1
  21   11   31 1
  22   12   13 1
  23   12   32 1
  24   12   33 1
  25   13   14 1
  26   13   34 1
  27   13   35 1
  28   14   15 1
  29   14   16 am
  30   15   36 1
  31   15   37 1
  32   16   17 1
  33   16   18 2
  34   17   21 1
  35   17   24 2
  36   19   20 ar
  37   19   38 1
  38   20   39 1
  39   21   22 2
  40   21   40 1
  41   22   23 1
  42   23   24 1
  43   24   25 1
  44   25   41 1
  45   25   42 1
  46   25   43 1

#	End of record

