#	Name: ASD02560267
#	Creating user name:	WinNT
#	Creation time:	15. 06. 2019 20:25

#	Modifying user name:	WinNT
#	Modification time:	15. 06. 2019 20:25

#	Program:	/corina/corina34_cracker 3.40 0067  02.08.2006

@<TRIPOS>MOLECULE
ASD02560267
  48   50    0    0    0
SMALL
NO_CHARGES


@<TRIPOS>ATOM
   1 N1             0.4582     1.3222    -0.0973 N.ar    
   2 C2             0.4470    -0.0061    -0.0963 C.ar    
   3 C3             1.6423    -0.6912     0.1153 C.ar    
   4 C4             2.7945     0.0456     0.3161 C.ar    
   5 N5             2.7260     1.3687     0.3011 N.ar    
   6 C6             1.5794     1.9860     0.0982 C.ar    
   7 O7            -0.7088    -0.6847    -0.2975 O.3     
   8 C8            -1.8431     0.0338    -0.4980 C.ar    
   9 C9            -4.1581     1.5007    -0.9072 C.ar    
  10 C10           -3.7789     1.1366     0.3877 C.ar    
  11 C11           -2.6271     0.4080     0.5867 C.ar    
  12 C12           -2.2140     0.3979    -1.7869 C.ar    
  13 C13           -3.3637     1.1272    -1.9947 C.ar    
  14 C14           -2.2167     0.0157     1.9827 C.3     
  15 C15           -1.3566    -0.0055    -2.9588 C.3     
  16 C16           -5.3548     2.2581    -1.1188 C.1     
  17 N17           -6.3041     2.8590    -1.2866 N.1     
  18 S18            1.5450     3.7476     0.0876 S.o2    
  19 C19            1.2318     4.2047     1.8149 C.3     
  20 C20            1.1797     5.7059     1.9358 C.2     
  21 N21            0.9569     6.2780     3.1356 N.am    
  22 C22            1.0053     7.6702     3.2666 C.ar    
  23 O23            1.3382     6.3993     0.9534 O.2     
  24 C24            0.5986     9.8564     2.3671 C.ar    
  25 C25            0.5500     8.4821     2.2360 C.ar    
  26 C26            1.5033     8.2425     4.4296 C.ar    
  27 C27            1.5497     9.6190     4.5557 C.ar    
  28 C28            1.0999    10.4252     3.5228 C.ar    
  29 O29            2.8611     4.1215    -0.2963 O.2     
  30 O30            0.4250     4.0714    -0.7248 O.2     
  31 F31            2.0336    10.1776     5.6867 F       
  32 H32            1.6675    -1.7709     0.1225 H       
  33 H33            3.7388    -0.4510     0.4836 H       
  34 H34           -4.3899     1.4232     1.2308 H       
  35 H35           -3.6532     1.4065    -2.9970 H       
  36 H36           -2.6543    -0.9510     2.2319 H       
  37 H37           -1.1302    -0.0527     2.0363 H       
  38 H38           -2.5688     0.7670     2.6896 H       
  39 H39           -1.6859    -0.9747    -3.3334 H       
  40 H40           -1.4478     0.7396    -3.7491 H       
  41 H41           -0.3160    -0.0731    -2.6415 H       
  42 H42            0.2802     3.7810     2.1360 H       
  43 H43            2.0329     3.8171     2.4443 H       
  44 H44            0.7630     5.7246     3.9083 H       
  45 H45            0.2448    10.4874     1.5651 H       
  46 H46            0.1584     8.0391     1.3322 H       
  47 H47            1.8536     7.6135     5.2347 H       
  48 H48            1.1367    11.5000     3.6226 H       
@<TRIPOS>BOND
   1    1    2 ar
   2    1    6 ar
   3    2    3 ar
   4    2    7 1
   5    3    4 ar
   6    3   32 1
   7    4    5 ar
   8    4   33 1
   9    5    6 ar
  10    6   18 1
  11    7    8 1
  12    8   12 ar
  13    8   11 ar
  14    9   10 ar
  15    9   13 ar
  16    9   16 1
  17   10   11 ar
  18   10   34 1
  19   11   14 1
  20   12   13 ar
  21   12   15 1
  22   13   35 1
  23   14   36 1
  24   14   37 1
  25   14   38 1
  26   15   39 1
  27   15   40 1
  28   15   41 1
  29   16   17 3
  30   18   19 1
  31   18   29 2
  32   18   30 2
  33   19   20 1
  34   19   42 1
  35   19   43 1
  36   20   21 am
  37   20   23 2
  38   21   22 1
  39   21   44 1
  40   22   26 ar
  41   22   25 ar
  42   24   25 ar
  43   24   28 ar
  44   24   45 1
  45   25   46 1
  46   26   27 ar
  47   26   47 1
  48   27   28 ar
  49   27   31 1
  50   28   48 1

#	End of record

