#	Name: ASD01230835
#	Creating user name:	WinNT
#	Creation time:	15. 06. 2019 19:15

#	Modifying user name:	WinNT
#	Modification time:	15. 06. 2019 19:15

#	Program:	/corina/corina34_cracker 3.40 0067  02.08.2006

@<TRIPOS>MOLECULE
ASD01230835
  48   51    0    0    0
SMALL
NO_CHARGES


@<TRIPOS>ATOM
   1 C1             0.0242     1.5931    -0.8728 C.3     
   2 C2            -0.1152     0.1868    -0.2835 C.3     
   3 C3            -1.5088    -0.3762    -0.5242 C.3     
   4 C4            -2.5700     0.7096    -0.6353 C.3     
   5 N5            -2.1903     1.9051     0.1211 N.pl3   
   6 C6            -0.9769     2.4807    -0.1534 C.2     
   7 C7            -3.0684     2.4392     1.1591 C.3     
   8 C8            -3.3026     3.9302     0.9112 C.3     
   9 S9            -1.7053     4.7790     0.8022 S.o2    
  10 N10           -0.6755     3.6887     0.1217 N.am    
  11 C11            1.4223     2.1082    -0.6473 C.ar    
  12 O12           -1.7688     5.8352    -0.1463 O.2     
  13 O13           -1.1706     4.9980     2.1004 O.2     
  14 C14            2.2161     2.4459    -1.7279 C.ar    
  15 C15            3.4982     2.9179    -1.5239 C.ar    
  16 C16            3.9892     3.0534    -0.2332 C.ar    
  17 C17            3.1904     2.7142     0.8495 C.ar    
  18 C18            1.9071     2.2476     0.6402 C.ar    
  19 O19            5.2502     3.5171    -0.0299 O.3     
  20 C20            5.4262     4.8602     0.0796 C.ar    
  21 C21            4.3272     5.7062     0.0926 C.ar    
  22 C22            4.5088     7.0715     0.2039 C.ar    
  23 C23            5.7844     7.5951     0.3024 C.ar    
  24 C24            6.8825     6.7546     0.2897 C.ar    
  25 C25            6.7066     5.3878     0.1844 C.ar    
  26 C26            3.3148     7.9909     0.2176 C.3     
  27 Cl27           8.0852     4.3328     0.1690 Cl      
  28 F28            2.8841     8.1764     1.5356 F       
  29 F29            3.6708     9.2259    -0.3349 F       
  30 F30            2.2810     7.4239    -0.5354 F       
  31 H31           -0.1960     1.5720    -1.9401 H       
  32 H32            0.6204    -0.4697    -0.7482 H       
  33 H33            0.0725     0.2290     0.7894 H       
  34 H34           -1.4997    -0.9552    -1.4477 H       
  35 H35           -1.7682    -1.0387     0.3015 H       
  36 H36           -2.6986     0.9769    -1.6841 H       
  37 H37           -3.5140     0.3269    -0.2474 H       
  38 H38           -4.0223     1.9124     1.1344 H       
  39 H39           -2.6026     2.3019     2.1350 H       
  40 H40           -3.8491     4.0622    -0.0227 H       
  41 H41           -3.8817     4.3491     1.7341 H       
  42 H42            1.8335     2.3403    -2.7323 H       
  43 H43            4.1180     3.1809    -2.3684 H       
  44 H44            3.5703     2.8184     1.8551 H       
  45 H45            1.2850     1.9834     1.4825 H       
  46 H46            3.3303     5.2982     0.0154 H       
  47 H47            5.9237     8.6626     0.3889 H       
  48 H48            7.8781     7.1662     0.3664 H       
@<TRIPOS>BOND
   1    1    2 1
   2    1   11 1
   3    1    6 1
   4    1   31 1
   5    2    3 1
   6    2   32 1
   7    2   33 1
   8    3    4 1
   9    3   34 1
  10    3   35 1
  11    4    5 1
  12    4   36 1
  13    4   37 1
  14    5    6 1
  15    5    7 1
  16    6   10 2
  17    7    8 1
  18    7   38 1
  19    7   39 1
  20    8    9 1
  21    8   40 1
  22    8   41 1
  23    9   10 am
  24    9   12 2
  25    9   13 2
  26   11   14 ar
  27   11   18 ar
  28   14   15 ar
  29   14   42 1
  30   15   16 ar
  31   15   43 1
  32   16   17 ar
  33   16   19 1
  34   17   18 ar
  35   17   44 1
  36   18   45 1
  37   19   20 1
  38   20   21 ar
  39   20   25 ar
  40   21   22 ar
  41   21   46 1
  42   22   23 ar
  43   22   26 1
  44   23   24 ar
  45   23   47 1
  46   24   25 ar
  47   24   48 1
  48   25   27 1
  49   26   28 1
  50   26   29 1
  51   26   30 1

#	End of record

