#	Name: ASD01000103
#	Creating user name:	WinNT
#	Creation time:	15. 06. 2019 18:54

#	Modifying user name:	WinNT
#	Modification time:	15. 06. 2019 18:54

#	Program:	/corina/corina34_cracker 3.40 0067  02.08.2006

@<TRIPOS>MOLECULE
ASD01000103
  47   50    0    0    0
SMALL
NO_CHARGES


@<TRIPOS>ATOM
   1 C1             0.0183     1.2716    -1.0245 C.ar    
   2 C2             0.0276    -0.0839    -0.7353 C.ar    
   3 C3             1.2228    -0.7345    -0.4978 C.ar    
   4 C4             2.4228    -0.0240    -0.5500 C.ar    
   5 C5             2.4066     1.3423    -0.8426 C.ar    
   6 C6             1.2035     1.9814    -1.0778 C.ar    
   7 C7             3.7056    -0.7137    -0.2964 C.2     
   8 S8             3.9333    -2.4346     0.0899 S.3     
   9 F9             3.5639     2.0374    -0.8946 F       
  10 F10           -1.1350    -0.7703    -0.6851 F       
  11 N11            4.8893    -0.1861    -0.3168 N.2     
  12 N12            6.0216    -0.9328    -0.0627 N.am    
  13 C13            5.7541    -2.3465     0.2213 C.3     
  14 C14            6.1985    -2.7209     1.6285 C.3     
  15 C15            7.7209    -2.9204     1.6188 C.3     
  16 O16            8.0280    -4.0150     0.7544 O.3     
  17 C17            7.4877    -4.0190    -0.4921 C.ar    
  18 C18            6.3872    -3.2370    -0.8065 C.ar    
  19 C19            8.0589    -4.8304    -1.4659 C.ar    
  20 C20            7.5340    -4.8605    -2.7416 C.ar    
  21 C21            6.4330    -4.0809    -3.0540 C.ar    
  22 C22            5.8625    -3.2728    -2.0877 C.ar    
  23 F23            5.9167    -4.1096    -4.3021 F       
  24 C24            7.2644    -0.4093    -0.0764 C.2     
  25 O25            8.2310    -1.1387     0.0040 O.2     
  26 C26            7.4529     1.0815    -0.1915 C.3     
  27 C27            5.8321    -1.5977     2.6005 C.3     
  28 C28            6.1670    -2.0302     4.0294 C.3     
  29 N29            5.8153    -0.9517     4.9627 N.3     
  30 H30           -0.9185     1.7746    -1.2134 H       
  31 H31            1.2286    -1.7905    -0.2718 H       
  32 H32            1.1895     3.0372    -1.3044 H       
  33 H33            5.7091    -3.6457     1.9341 H       
  34 H34            8.2065    -2.0162     1.2516 H       
  35 H35            8.0677    -3.1420     2.6281 H       
  36 H36            8.9171    -5.4393    -1.2229 H       
  37 H37            7.9814    -5.4911    -3.4956 H       
  38 H38            5.0036    -2.6660    -2.3336 H       
  39 H39            6.9685     1.5750     0.6510 H       
  40 H40            8.5177     1.3146    -0.1860 H       
  41 H41            7.0088     1.4330    -1.1228 H       
  42 H42            6.3991    -0.7011     2.3500 H       
  43 H43            4.7655    -1.3858     2.5256 H       
  44 H44            5.6001    -2.9268     4.2799 H       
  45 H45            7.2336    -2.2421     4.1043 H       
  46 H46            4.8449    -0.6925     4.8665 H       
  47 H47            6.0271    -1.2132     5.9139 H       
@<TRIPOS>BOND
   1    1    2 ar
   2    1    6 ar
   3    1   30 1
   4    2    3 ar
   5    2   10 1
   6    3    4 ar
   7    3   31 1
   8    4    5 ar
   9    4    7 1
  10    5    6 ar
  11    5    9 1
  12    6   32 1
  13    7    8 1
  14    7   11 2
  15    8   13 1
  16   11   12 1
  17   12   24 am
  18   12   13 1
  19   13   14 1
  20   13   18 1
  21   14   15 1
  22   14   27 1
  23   14   33 1
  24   15   16 1
  25   15   34 1
  26   15   35 1
  27   16   17 1
  28   17   18 ar
  29   17   19 ar
  30   18   22 ar
  31   19   20 ar
  32   19   36 1
  33   20   21 ar
  34   20   37 1
  35   21   22 ar
  36   21   23 1
  37   22   38 1
  38   24   25 2
  39   24   26 1
  40   26   39 1
  41   26   40 1
  42   26   41 1
  43   27   28 1
  44   27   42 1
  45   27   43 1
  46   28   29 1
  47   28   44 1
  48   28   45 1
  49   29   46 1
  50   29   47 1

#	End of record

