#	Name: ASD01410520
#	Creating user name:	WinNT
#	Creation time:	15. 06. 2019 19:18

#	Modifying user name:	WinNT
#	Modification time:	15. 06. 2019 19:18

#	Program:	/corina/corina34_cracker 3.40 0067  02.08.2006

@<TRIPOS>MOLECULE
ASD01410520
  71   74    0    0    0
SMALL
NO_CHARGES


@<TRIPOS>ATOM
   1 C1            -0.1822     0.3396     1.8267 C.ar    
   2 C2             0.3058    -0.4695     2.8432 C.ar    
   3 C3             1.6207    -0.8894     2.8003 C.ar    
   4 N4             2.4131    -0.5306     1.8084 N.ar    
   5 C5             1.9848     0.2394     0.8216 C.ar    
   6 C6             0.6740     0.6983     0.7999 C.ar    
   7 O7             2.8340     0.5842    -0.1787 O.3     
   8 C8             4.1323     0.1935    -0.0768 C.ar    
   9 C9             4.4652    -1.1481    -0.2213 C.ar    
  10 C10            5.7799    -1.5555    -0.1203 C.ar    
  11 C11            6.7807    -0.6258     0.1269 C.ar    
  12 C12            6.4511     0.7305     0.2737 C.ar    
  13 C13            5.1179     1.1332     0.1644 C.ar    
  14 N14            8.1076    -1.0376     0.2292 N.am    
  15 C15            8.8437    -1.2223    -0.8846 C.2     
  16 C16            8.7028    -1.2701     1.5475 C.3     
  17 O17           10.0169    -1.5278    -0.7941 O.2     
  18 C18            8.2248    -1.0534    -2.2156 C.ar    
  19 C19            8.7132    -1.7675    -3.3115 C.ar    
  20 C20            8.1310    -1.6059    -4.5511 C.ar    
  21 C21            7.0641    -0.7376    -4.7103 C.ar    
  22 C22            6.5751    -0.0264    -3.6273 C.ar    
  23 C23            7.1454    -0.1834    -2.3815 C.ar    
  24 C24           -0.5896    -0.8851     3.9820 C.3     
  25 C25            7.6862    -0.9180     2.6354 C.3     
  26 C26            9.0982    -2.7425     1.6762 C.3     
  27 Br27           6.2720    -0.5214    -6.4137 Br      
  28 C28            6.5656     0.9356     3.6617 C.3     
  29 O29            7.5012     0.4984     2.6740 O.3     
  30 O30           10.2028    -3.0164     0.8120 O.3     
  31 C31           -1.2914    -2.1972     3.6263 C.3     
  32 C32           10.6531    -4.3719     0.8560 C.3     
  33 N33           -2.1618    -2.6012     4.7333 N.pl3   
  34 N34           -3.3952    -2.2585     4.8553 N.2     
  35 C35           -3.8741    -2.7920     5.9563 C.2     
  36 C36           -2.8190    -3.5101     6.5239 C.2     
  37 N37           -1.7980    -3.3513     5.7125 N.2     
  38 C38            7.5063     1.7251     0.5368 C.2     
  39 O39            8.6749     1.3931     0.5084 O.2     
  40 O40            7.1753     3.0028     0.8089 O.3     
  41 C41            0.1905     1.5753    -0.3263 C.3     
  42 F42           -1.1543     1.9009    -0.1194 F       
  43 F43            0.9535     2.7473    -0.3652 F       
  44 F44            0.3234     0.8918    -1.5397 F       
  45 H45           -1.2078     0.6780     1.8343 H       
  46 H46            2.0053    -1.5192     3.5889 H       
  47 H47            3.6907    -1.8759    -0.4133 H       
  48 H48            6.0306    -2.5999    -0.2334 H       
  49 H49            4.8564     2.1752     0.2759 H       
  50 H50            9.5883    -0.6448     1.6617 H       
  51 H51            9.5454    -2.4448    -3.1887 H       
  52 H52            8.5081    -2.1575    -5.3996 H       
  53 H53            5.7428     0.6493    -3.7577 H       
  54 H54            6.7630     0.3715    -1.5375 H       
  55 H55            0.0089    -1.0255     4.8821 H       
  56 H56           -1.3356    -0.1103     4.1589 H       
  57 H57            6.7352    -1.4028     2.4145 H       
  58 H58            8.0540    -1.2629     3.6017 H       
  59 H59            9.3823    -2.9537     2.7071 H       
  60 H60            8.2531    -3.3714     1.3961 H       
  61 H61            6.4816     2.0218     3.6270 H       
  62 H62            5.5914     0.4893     3.4622 H       
  63 H63            6.9102     0.6292     4.6494 H       
  64 H64           -1.8898    -2.0568     2.7261 H       
  65 H65           -0.5453    -2.9720     3.4494 H       
  66 H66            9.8402    -5.0346     0.5589 H       
  67 H67           11.4929    -4.4981     0.1728 H       
  68 H68           10.9694    -4.6169     1.8699 H       
  69 H69           -4.8776    -2.6948     6.3434 H       
  70 H70           -2.8396    -4.0823     7.4396 H       
  71 H71            7.9020     3.6188     0.9747 H       
@<TRIPOS>BOND
   1    1    2 ar
   2    1    6 ar
   3    1   45 1
   4    2    3 ar
   5    2   24 1
   6    3    4 ar
   7    3   46 1
   8    4    5 ar
   9    5    6 ar
  10    5    7 1
  11    6   41 1
  12    7    8 1
  13    8    9 ar
  14    8   13 ar
  15    9   10 ar
  16    9   47 1
  17   10   11 ar
  18   10   48 1
  19   11   12 ar
  20   11   14 1
  21   12   13 ar
  22   12   38 1
  23   13   49 1
  24   14   15 am
  25   14   16 1
  26   15   17 2
  27   15   18 1
  28   16   26 1
  29   16   25 1
  30   16   50 1
  31   18   19 ar
  32   18   23 ar
  33   19   20 ar
  34   19   51 1
  35   20   21 ar
  36   20   52 1
  37   21   22 ar
  38   21   27 1
  39   22   23 ar
  40   22   53 1
  41   23   54 1
  42   24   31 1
  43   24   55 1
  44   24   56 1
  45   25   29 1
  46   25   57 1
  47   25   58 1
  48   26   30 1
  49   26   59 1
  50   26   60 1
  51   28   29 1
  52   28   61 1
  53   28   62 1
  54   28   63 1
  55   30   32 1
  56   31   33 1
  57   31   64 1
  58   31   65 1
  59   32   66 1
  60   32   67 1
  61   32   68 1
  62   33   34 1
  63   33   37 1
  64   34   35 2
  65   35   36 1
  66   35   69 1
  67   36   37 2
  68   36   70 1
  69   38   39 2
  70   38   40 1
  71   40   71 1
  72   41   42 1
  73   41   43 1
  74   41   44 1

#	End of record

