#	Name: ASD05740091
#	Creating user name:	WinNT
#	Creation time:	15. 06. 2019 21:02

#	Modifying user name:	WinNT
#	Modification time:	15. 06. 2019 21:02

#	Program:	/corina/corina34_cracker 3.40 0067  02.08.2006

@<TRIPOS>MOLECULE
ASD05740091
  48   51    0    0    0
SMALL
NO_CHARGES


@<TRIPOS>ATOM
   1 C1            -0.0184     1.5028     0.0103 C.3     
   2 C2            -2.6825     1.2562    -2.1476 C.ar    
   3 C3             1.2264    -0.6971    -0.0134 C.2     
   4 C4             1.2381    -2.0840    -0.0205 C.2     
   5 C5             0.0021    -0.0041     0.0020 C.2     
   6 C6            -1.1673    -0.7087     0.0099 C.2     
   7 C7            -1.1223    -2.1093     0.0024 C.2     
   8 O8             0.0505    -2.7563    -0.0119 O.3     
   9 C9            -2.4910     0.0113     0.0269 C.3     
  10 C10           -3.0055     0.1502    -1.3828 C.ar    
  11 C11           -3.8151    -0.8295    -1.9429 C.ar    
  12 O12           -2.1626    -2.7462     0.0093 O.2     
  13 C13           -3.1767     1.3495    -3.4449 C.ar    
  14 N14           -3.9463     0.3942    -3.9430 N.ar    
  15 C15           -4.2703    -0.6723    -3.2364 C.ar    
  16 N16           -2.8604     2.4559    -4.2246 N.am    
  17 S17           -3.4456     2.5749    -5.7692 S.o2    
  18 O18           -2.9794     3.8161    -6.2804 O.2     
  19 O19           -3.1804     1.3274    -6.3960 O.2     
  20 C20            2.5217    -2.6155    -0.0357 C.2     
  21 C21            3.5215    -1.7250    -0.0409 C.2     
  22 S22            2.8794    -0.0910    -0.0193 S.3     
  23 O23            4.8399    -2.0397    -0.0547 O.3     
  24 C24            5.7362    -1.0238    -0.0584 C.ar    
  25 N25            7.0294    -1.3041    -0.0718 N.ar    
  26 N26            5.2971     0.2245    -0.0541 N.ar    
  27 C27            6.1450     1.2399    -0.0580 C.ar    
  28 C28            7.5070     0.9830    -0.0667 C.ar    
  29 C29            7.9315    -0.3365    -0.0762 C.ar    
  30 N30           -5.0930     2.7029    -5.6608 N.am    
  31 C31           -5.6963     3.8769    -5.0252 C.3     
  32 H32            1.0042     1.8801     0.0026 H       
  33 H33           -0.5455     1.8639    -0.8728 H       
  34 H34           -0.5286     1.8543     0.9071 H       
  35 H35           -2.0588     2.0390    -1.7419 H       
  36 H36           -3.2066    -0.5577     0.6204 H       
  37 H37           -2.3608     1.0008     0.4652 H       
  38 H38           -4.0854    -1.7057    -1.3722 H       
  39 H39           -4.9000    -1.4317    -3.6758 H       
  40 H40           -2.2969     3.1583    -3.8640 H       
  41 H41            2.7018    -3.6804    -0.0424 H       
  42 H42            5.7805     2.2566    -0.0548 H       
  43 H43            8.2215     1.7928    -0.0704 H       
  44 H44            8.9855    -0.5716    -0.0828 H       
  45 H45           -5.6586     2.0005    -6.0181 H       
  46 H46           -5.3972     4.7758    -5.5643 H       
  47 H47           -6.7821     3.7843    -5.0473 H       
  48 H48           -5.3583     3.9441    -3.9911 H       
@<TRIPOS>BOND
   1    1    5 1
   2    1   32 1
   3    1   33 1
   4    1   34 1
   5    2   10 ar
   6    2   13 ar
   7    2   35 1
   8    3    4 2
   9    3    5 1
  10    3   22 1
  11    4   20 1
  12    4    8 1
  13    5    6 2
  14    6    7 1
  15    6    9 1
  16    7    8 1
  17    7   12 2
  18    9   10 1
  19    9   36 1
  20    9   37 1
  21   10   11 ar
  22   11   15 ar
  23   11   38 1
  24   13   14 ar
  25   13   16 1
  26   14   15 ar
  27   15   39 1
  28   16   17 am
  29   16   40 1
  30   17   18 2
  31   17   19 2
  32   17   30 am
  33   20   21 2
  34   20   41 1
  35   21   22 1
  36   21   23 1
  37   23   24 1
  38   24   25 ar
  39   24   26 ar
  40   25   29 ar
  41   26   27 ar
  42   27   28 ar
  43   27   42 1
  44   28   29 ar
  45   28   43 1
  46   29   44 1
  47   30   31 1
  48   30   45 1
  49   31   46 1
  50   31   47 1
  51   31   48 1

#	End of record

