#	Name: ASD05490259
#	Creating user name:	WinNT
#	Creation time:	15. 06. 2019 21:01

#	Modifying user name:	WinNT
#	Modification time:	15. 06. 2019 21:01

#	Program:	/corina/corina34_cracker 3.40 0067  02.08.2006

@<TRIPOS>MOLECULE
ASD05490259
  63   66    0    0    0
SMALL
NO_CHARGES


@<TRIPOS>ATOM
   1 N1            -0.4362     0.9771    -0.7546 N.ar    
   2 C2            -0.2758    -0.3324    -0.8779 C.ar    
   3 C3             0.9882    -0.8965    -0.9107 C.ar    
   4 C4             2.1023    -0.0654    -0.8117 C.ar    
   5 C5             1.9002     1.3102    -0.6827 C.ar    
   6 C6             0.5944     1.8033    -0.6575 C.ar    
   7 N7             3.3831    -0.5960    -0.8404 N.am    
   8 C8             3.5743    -2.0421    -0.9764 C.3     
   9 C9             4.7776    -2.4673    -0.1749 C.ar    
  10 C10            4.6864    -2.5845     1.1992 C.ar    
  11 C11            5.7903    -2.9745     1.9345 C.ar    
  12 C12            6.9850    -3.2477     1.2954 C.ar    
  13 C13            7.0760    -3.1313    -0.0793 C.ar    
  14 C14            5.9712    -2.7456    -0.8148 C.ar    
  15 N15            0.3744     3.1707    -0.5300 N.pl3   
  16 O16           -1.3676    -1.1332    -0.9732 O.3     
  17 C17           -2.6456    -0.4952    -0.9331 C.3     
  18 N18            2.9848     2.1787    -0.5810 N.am    
  19 C19            4.4533     0.2201    -0.7436 C.2     
  20 C20            4.2423     1.6900    -0.6066 C.2     
  21 O21            5.1936     2.4404    -0.5185 O.2     
  22 C22           -3.7466    -1.5508    -1.0531 C.3     
  23 C23           -5.1150    -0.8677    -1.0101 C.3     
  24 C24           -6.2159    -1.9234    -1.1301 C.3     
  25 C25            9.7716    -5.2330    -1.6059 C.3     
  26 N26            8.4260    -4.8513    -1.1396 N.3     
  27 C27            8.3787    -3.4287    -0.7761 C.3     
  28 C28            9.6138    -5.8248    -3.0224 C.3     
  29 C29            8.1274    -6.2681    -3.0523 C.3     
  30 C30            7.4526    -5.1574    -2.2094 C.3     
  31 O31            5.5779    -0.2380    -0.7685 O.2     
  32 C32            1.1567    -2.3875    -1.0509 C.3     
  33 F33           -0.0456    -2.9536    -1.4881 F       
  34 F34            2.1650    -2.6573    -1.9823 F       
  35 F35            1.5070    -2.9357     0.1876 F       
  36 H36            2.6900    -2.5618    -0.6076 H       
  37 H37            3.7305    -2.2909    -2.0261 H       
  38 H38            3.7529    -2.3710     1.6986 H       
  39 H39            5.7193    -3.0654     3.0083 H       
  40 H40            7.8476    -3.5517     1.8698 H       
  41 H41            6.0422    -2.6548    -1.8886 H       
  42 H42            1.1270     3.7785    -0.4590 H       
  43 H43           -0.5317     3.5166    -0.5122 H       
  44 H44           -2.7556     0.0389     0.0107 H       
  45 H45           -2.7261     0.2094    -1.7609 H       
  46 H46            2.8362     3.1332    -0.4923 H       
  47 H47           -3.6366    -2.0849    -1.9968 H       
  48 H48           -3.6661    -2.2554    -0.2253 H       
  49 H49           -5.2250    -0.3336    -0.0664 H       
  50 H50           -5.1955    -0.1631    -1.8379 H       
  51 H51           -7.1908    -1.4367    -1.0995 H       
  52 H52           -6.1059    -2.4575    -2.0739 H       
  53 H53           -6.1355    -2.6280    -0.3023 H       
  54 H54           10.4152    -4.3540    -1.6409 H       
  55 H55           10.1976    -5.9808    -0.9370 H       
  56 H56            8.4557    -2.8206    -1.6774 H       
  57 H57            9.2089    -3.1964    -0.1090 H       
  58 H58            9.8049    -5.0655    -3.7807 H       
  59 H59           10.2743    -6.6812    -3.1580 H       
  60 H60            7.7419    -6.2731    -4.0718 H       
  61 H61            8.0016    -7.2444    -2.5841 H       
  62 H62            6.5189    -5.5211    -1.7803 H       
  63 H63            7.2711    -4.2739    -2.8215 H       
@<TRIPOS>BOND
   1    1    2 ar
   2    1    6 ar
   3    2    3 ar
   4    2   16 1
   5    3    4 ar
   6    3   32 1
   7    4    5 ar
   8    4    7 1
   9    5    6 ar
  10    5   18 1
  11    6   15 1
  12    7    8 1
  13    7   19 am
  14    8    9 1
  15    8   36 1
  16    8   37 1
  17    9   10 ar
  18    9   14 ar
  19   10   11 ar
  20   10   38 1
  21   11   12 ar
  22   11   39 1
  23   12   13 ar
  24   12   40 1
  25   13   14 ar
  26   13   27 1
  27   14   41 1
  28   15   42 1
  29   15   43 1
  30   16   17 1
  31   17   22 1
  32   17   44 1
  33   17   45 1
  34   18   20 am
  35   18   46 1
  36   19   20 1
  37   19   31 2
  38   20   21 2
  39   22   23 1
  40   22   47 1
  41   22   48 1
  42   23   24 1
  43   23   49 1
  44   23   50 1
  45   24   51 1
  46   24   52 1
  47   24   53 1
  48   25   26 1
  49   25   28 1
  50   25   54 1
  51   25   55 1
  52   26   27 1
  53   26   30 1
  54   27   56 1
  55   27   57 1
  56   28   29 1
  57   28   58 1
  58   28   59 1
  59   29   30 1
  60   29   60 1
  61   29   61 1
  62   30   62 1
  63   30   63 1
  64   32   33 1
  65   32   34 1
  66   32   35 1

#	End of record

