#	Name: ASD08150688
#	Creating user name:	WinNT
#	Creation time:	15. 06. 2019 21:16

#	Modifying user name:	WinNT
#	Modification time:	15. 06. 2019 21:16

#	Program:	/corina/corina34_cracker 3.40 0067  02.08.2006

@<TRIPOS>MOLECULE
ASD08150688
  55   56    0    0    0
SMALL
NO_CHARGES


@<TRIPOS>ATOM
   1 C1             0.2320     0.9621     0.9823 C.ar    
   2 C2             0.0027    -0.0051     0.0146 C.ar    
   3 C3             0.9722    -0.2611    -0.9524 C.ar    
   4 C4             2.1603     0.4515    -0.9428 C.ar    
   5 C5             2.3819     1.4136     0.0250 C.ar    
   6 C6             1.4199     1.6685     0.9849 C.ar    
   7 N7            -1.2004    -0.7229     0.0101 N.am    
   8 C8            -2.3743    -0.0711     0.1270 C.2     
   9 N9            -3.5345    -0.7506     0.0337 N.am    
  10 S10           -2.3917     1.6198     0.3940 S.2     
  11 C11           -4.7084    -0.0989     0.1506 C.2     
  12 C12           -5.9805    -0.8439     0.0483 C.ar    
  13 O13           -4.7208     1.1014     0.3401 O.2     
  14 C14           -7.1983    -0.1719     0.1689 C.ar    
  15 C15           -8.3821    -0.8734     0.0720 C.ar    
  16 C16           -8.3644    -2.2399    -0.1443 C.ar    
  17 C17           -7.1610    -2.9121    -0.2648 C.ar    
  18 C18           -5.9699    -2.2220    -0.1751 C.ar    
  19 C19           -9.6976    -0.1498     0.2024 C.3     
  20 C20           -7.1516    -4.4007    -0.4997 C.3     
  21 C21            1.6674     2.7188     2.0369 C.3     
  22 C22            1.2751     4.0922     1.4885 C.3     
  23 C23            3.6755     2.1866     0.0338 C.3     
  24 O24            0.7532    -1.2083    -1.9032 O.3     
  25 C25          -10.1599     0.3208    -1.1781 C.3     
  26 C26           -7.1655    -4.6796    -2.0040 C.3     
  27 C27            4.6630     1.5173     0.9919 C.3     
  28 F28            4.9063     0.2059     0.5698 F       
  29 F29            5.8639     2.2349     1.0001 F       
  30 F30            4.1218     1.4992     2.2819 F       
  31 H31           -0.5194     1.1661     1.7308 H       
  32 H32            2.9137     0.2551    -1.6913 H       
  33 H33           -1.1885    -1.6889    -0.0771 H       
  34 H34           -3.5246    -1.7087    -0.1175 H       
  35 H35           -7.2134     0.8947     0.3381 H       
  36 H36           -9.2941    -2.7844    -0.2190 H       
  37 H37           -5.0313    -2.7478    -0.2694 H       
  38 H38          -10.4427    -0.8239     0.6248 H       
  39 H39           -9.5746     0.7124     0.8578 H       
  40 H40           -6.2533    -4.8325    -0.0584 H       
  41 H41           -8.0331    -4.8468    -0.0393 H       
  42 H42            1.0694     2.4961     2.9205 H       
  43 H43            2.7240     2.7228     2.3048 H       
  44 H44            1.8732     4.3149     0.6048 H       
  45 H45            0.2186     4.0882     1.2206 H       
  46 H46            1.4542     4.8519     2.2493 H       
  47 H47            4.0972     2.2007    -0.9712 H       
  48 H48            3.4860     3.2083     0.3627 H       
  49 H49            0.3274    -0.8713    -2.7033 H       
  50 H50          -10.2829    -0.5414    -1.8335 H       
  51 H51          -11.1113     0.8441    -1.0837 H       
  52 H52           -9.4147     0.9949    -1.6005 H       
  53 H53           -8.0637    -4.2478    -2.4453 H       
  54 H54           -6.2839    -4.2335    -2.4644 H       
  55 H55           -7.1587    -5.7563    -2.1739 H       
@<TRIPOS>BOND
   1    1    2 ar
   2    1    6 ar
   3    1   31 1
   4    2    3 ar
   5    2    7 1
   6    3    4 ar
   7    3   24 1
   8    4    5 ar
   9    4   32 1
  10    5    6 ar
  11    5   23 1
  12    6   21 1
  13    7    8 am
  14    7   33 1
  15    8    9 am
  16    8   10 2
  17    9   11 am
  18    9   34 1
  19   11   12 1
  20   11   13 2
  21   12   14 ar
  22   12   18 ar
  23   14   15 ar
  24   14   35 1
  25   15   16 ar
  26   15   19 1
  27   16   17 ar
  28   16   36 1
  29   17   18 ar
  30   17   20 1
  31   18   37 1
  32   19   25 1
  33   19   38 1
  34   19   39 1
  35   20   26 1
  36   20   40 1
  37   20   41 1
  38   21   22 1
  39   21   42 1
  40   21   43 1
  41   22   44 1
  42   22   45 1
  43   22   46 1
  44   23   27 1
  45   23   47 1
  46   23   48 1
  47   24   49 1
  48   25   50 1
  49   25   51 1
  50   25   52 1
  51   26   53 1
  52   26   54 1
  53   26   55 1
  54   27   28 1
  55   27   29 1
  56   27   30 1

#	End of record

