#	Name: ASD03730634
#	Creating user name:	WinNT
#	Creation time:	15. 06. 2019 20:44

#	Modifying user name:	WinNT
#	Modification time:	15. 06. 2019 20:44

#	Program:	/corina/corina34_cracker 3.40 0067  02.08.2006

@<TRIPOS>MOLECULE
ASD03730634
  62   67    0    0    0
SMALL
NO_CHARGES


@<TRIPOS>ATOM
   1 O1            -0.4722     1.1276     1.3602 O.3     
   2 C2            -0.4004    -0.3085     1.4362 C.3     
   3 O3             0.6731    -0.6454     0.5379 O.3     
   4 C4             1.4917     0.4475     0.5206 C.ar    
   5 C5             0.7866     1.5377     1.0252 C.ar    
   6 C6             2.8033     0.6025     0.1095 C.ar    
   7 C7             3.4269     1.8437     0.1947 C.ar    
   8 C8             2.7095     2.9274     0.6921 C.ar    
   9 C9             1.4034     2.7747     1.1084 C.ar    
  10 O10            4.7006     2.2037    -0.1343 O.3     
  11 C11            3.6317     4.1158     0.6329 C.3     
  12 C12            4.7672     3.6352    -0.2813 C.3     
  13 N13            3.0644     6.2940     1.0271 N.am    
  14 C14            2.9508     5.3368     0.0847 C.2     
  15 C15            4.1355     4.5164     1.9873 C.ar    
  16 C16            4.8388     3.8543     2.9840 C.ar    
  17 C17            5.1671     4.5231     4.1626 C.ar    
  18 C18            4.7893     5.8408     4.3296 C.ar    
  19 C19            4.0896     6.4987     3.3387 C.ar    
  20 C20            3.7553     5.8433     2.1548 C.ar    
  21 O21            2.4058     5.4413    -0.9938 O.2     
  22 C22            2.5256     7.6490     0.8855 C.3     
  23 C23            1.0949     7.6880     1.4263 C.3     
  24 C24            0.5322     9.1031     1.2784 C.3     
  25 C25           -0.8985     9.1421     1.8192 C.3     
  26 C26           -1.4611    10.5572     1.6713 C.3     
  27 C27            5.2399     2.4378     2.7959 C.ar    
  28 C28            4.7235     1.4518     3.6290 C.ar    
  29 C29            5.1057     0.1212     3.4458 C.ar    
  30 C30            6.0049    -0.2093     2.4259 C.ar    
  31 C31            6.5114     0.7766     1.6047 C.ar    
  32 C32            6.1307     2.0936     1.7797 C.ar    
  33 C33            4.5651    -0.9299     4.3229 C.2     
  34 O34            3.7864    -0.6412     5.2063 O.2     
  35 C35            4.9793    -2.3650     4.1229 C.3     
  36 H36           -0.1642    -0.6269     2.4516 H       
  37 H37           -1.3355    -0.7570     1.1009 H       
  38 H38            3.3472    -0.2454    -0.2799 H       
  39 H39            0.8602     3.6222     1.4998 H       
  40 H40            5.7288     4.0155     0.0632 H       
  41 H41            4.5819     3.9273    -1.3150 H       
  42 H42            5.7142     4.0127     4.9415 H       
  43 H43            5.0428     6.3598     5.2421 H       
  44 H44            3.7993     7.5291     3.4813 H       
  45 H45            3.1457     8.3471     1.4478 H       
  46 H46            2.5239     7.9311    -0.1673 H       
  47 H47            0.4748     6.9898     0.8640 H       
  48 H48            1.0966     7.4058     2.4791 H       
  49 H49            1.1523     9.8012     1.8407 H       
  50 H50            0.5306     9.3853     0.2256 H       
  51 H51           -1.5186     8.4440     1.2569 H       
  52 H52           -0.8968     8.8599     2.8720 H       
  53 H53           -0.8410    11.2553     2.2336 H       
  54 H54           -1.4628    10.8394     0.6185 H       
  55 H55           -2.4804    10.5850     2.0566 H       
  56 H56            4.0302     1.7137     4.4146 H       
  57 H57            6.3029    -1.2373     2.2816 H       
  58 H58            7.2051     0.5175     0.8186 H       
  59 H59            6.5277     2.8594     1.1298 H       
  60 H60            5.6781    -2.4286     3.2888 H       
  61 H61            5.4602    -2.7340     5.0288 H       
  62 H62            4.0991    -2.9704     3.9064 H       
@<TRIPOS>BOND
   1    1    2 1
   2    1    5 1
   3    2    3 1
   4    2   36 1
   5    2   37 1
   6    3    4 1
   7    4    5 ar
   8    4    6 ar
   9    5    9 ar
  10    6    7 ar
  11    6   38 1
  12    7    8 ar
  13    7   10 1
  14    8    9 ar
  15    8   11 1
  16    9   39 1
  17   10   12 1
  18   11   12 1
  19   11   14 1
  20   11   15 1
  21   12   40 1
  22   12   41 1
  23   13   14 am
  24   13   20 1
  25   13   22 1
  26   14   21 2
  27   15   16 ar
  28   15   20 ar
  29   16   17 ar
  30   16   27 1
  31   17   18 ar
  32   17   42 1
  33   18   19 ar
  34   18   43 1
  35   19   20 ar
  36   19   44 1
  37   22   23 1
  38   22   45 1
  39   22   46 1
  40   23   24 1
  41   23   47 1
  42   23   48 1
  43   24   25 1
  44   24   49 1
  45   24   50 1
  46   25   26 1
  47   25   51 1
  48   25   52 1
  49   26   53 1
  50   26   54 1
  51   26   55 1
  52   27   28 ar
  53   27   32 ar
  54   28   29 ar
  55   28   56 1
  56   29   30 ar
  57   29   33 1
  58   30   31 ar
  59   30   57 1
  60   31   32 ar
  61   31   58 1
  62   32   59 1
  63   33   34 2
  64   33   35 1
  65   35   60 1
  66   35   61 1
  67   35   62 1

#	End of record

