#	Name: ASD00170057
#	Creating user name:	WinNT
#	Creation time:	15. 06. 2019 18:31

#	Modifying user name:	WinNT
#	Modification time:	15. 06. 2019 18:31

#	Program:	/corina/corina34_cracker 3.40 0067  02.08.2006

@<TRIPOS>MOLECULE
ASD00170057
  33   35    0    0    0
SMALL
NO_CHARGES


@<TRIPOS>ATOM
   1 C1             0.0144     1.3185    -0.0545 C.2     
   2 C2             0.0204    -0.0181    -0.0726 C.2     
   3 C3            -1.3168    -0.5800     0.0132 C.2     
   4 C4            -2.2999     0.3732     0.0947 C.2     
   5 S5            -1.6254     1.9359     0.0610 S.3     
   6 N6            -3.6501     0.1027     0.1854 N.pl3   
   7 C7            -1.5875    -2.0172     0.0123 C.2     
   8 C8            -1.8380    -2.7219    -1.2641 C.ar    
   9 O9            -1.6067    -2.6338     1.0622 O.2     
  10 C10           -1.9790    -4.1102    -1.2820 C.ar    
  11 C11           -2.2130    -4.7620    -2.4754 C.ar    
  12 C12           -2.3079    -4.0428    -3.6531 C.ar    
  13 C13           -2.1685    -2.6649    -3.6430 C.ar    
  14 C14           -1.9399    -2.0005    -2.4546 C.ar    
  15 C15            1.2608     2.1798    -0.1304 C.3     
  16 C16            2.4801     1.3110     0.1894 C.3     
  17 C17            2.4278     0.0423    -0.6670 C.3     
  18 C18            1.2884    -0.8512    -0.1716 C.3     
  19 Cl19          -2.2881    -1.7710    -5.1263 Cl      
  20 H20           -3.9671    -0.8117     0.1194 H       
  21 H21           -4.2822     0.8269     0.3153 H       
  22 H22           -1.9049    -4.6734    -0.3634 H       
  23 H23           -2.3219    -5.8364    -2.4901 H       
  24 H24           -2.4911    -4.5579    -4.5845 H       
  25 H25           -1.8316    -0.9260    -2.4473 H       
  26 H26            1.3592     2.5924    -1.1345 H       
  27 H27            1.1894     2.9905     0.5947 H       
  28 H28            3.3916     1.8651    -0.0349 H       
  29 H29            2.4675     1.0393     1.2450 H       
  30 H30            2.2523     0.3126    -1.7082 H       
  31 H31            3.3735    -0.4932    -0.5830 H       
  32 H32            1.5394    -1.2527     0.8102 H       
  33 H33            1.1339    -1.6697    -0.8747 H       
@<TRIPOS>BOND
   1    1    2 2
   2    1   15 1
   3    1    5 1
   4    2    3 1
   5    2   18 1
   6    3    4 2
   7    3    7 1
   8    4    5 1
   9    4    6 1
  10    6   20 1
  11    6   21 1
  12    7    8 1
  13    7    9 2
  14    8   10 ar
  15    8   14 ar
  16   10   11 ar
  17   10   22 1
  18   11   12 ar
  19   11   23 1
  20   12   13 ar
  21   12   24 1
  22   13   14 ar
  23   13   19 1
  24   14   25 1
  25   15   16 1
  26   15   26 1
  27   15   27 1
  28   16   17 1
  29   16   28 1
  30   16   29 1
  31   17   18 1
  32   17   30 1
  33   17   31 1
  34   18   32 1
  35   18   33 1

#	End of record

