#	Name: ASD01916159
#	Creating user name:	WinNT
#	Creation time:	15. 06. 2019 20:06

#	Modifying user name:	WinNT
#	Modification time:	15. 06. 2019 20:06

#	Program:	/corina/corina34_cracker 3.40 0067  02.08.2006

@<TRIPOS>MOLECULE
ASD01916159
  40   42    0    0    0
SMALL
NO_CHARGES


@<TRIPOS>ATOM
   1 C1            -0.4114     1.7412     0.1046 C.ar    
   2 C2            -0.5445     0.3909     0.3732 C.ar    
   3 N3             0.4985    -0.3394     0.7065 N.ar    
   4 C4             1.7165     0.1817     0.7995 C.ar    
   5 C5             1.9302     1.5327     0.5449 C.ar    
   6 C6             0.8467     2.3318     0.1894 C.ar    
   7 C7            -1.9038    -0.2534     0.2833 C.3     
   8 O8             1.0127     3.6542    -0.0676 O.3     
   9 C9             2.2645     4.1726     0.0388 C.ar    
  10 C10            3.1951     3.9766    -0.9714 C.ar    
  11 N11            4.4110     4.4766    -0.8736 N.ar    
  12 C12            4.7918     5.1773     0.1762 C.ar    
  13 C13            3.9197     5.4157     1.2255 C.ar    
  14 C14            2.6287     4.9120     1.1595 C.ar    
  15 C15            2.8579    -0.6832     1.1784 C.2     
  16 N16            2.6577    -1.9926     1.4269 N.am    
  17 O17            3.9747    -0.2120     1.2652 O.2     
  18 C18            3.7446    -2.8282     1.6801 C.ar    
  19 C19            3.5428    -4.1963     1.8202 C.ar    
  20 C20            4.6298    -5.0154     2.0709 C.ar    
  21 C21            5.8879    -4.4340     2.1734 C.ar    
  22 C22            6.0144    -3.0648     2.0228 C.ar    
  23 N23            4.9592    -2.3114     1.7794 N.ar    
  24 C24           -1.8411    -1.4450    -0.6743 C.3     
  25 F25            4.3177     6.1393     2.2947 F       
  26 F26            6.9753    -5.1976     2.4178 F       
  27 H27           -1.2733     2.3301    -0.1723 H       
  28 H28            2.9212     1.9551     0.6217 H       
  29 H29           -2.2090    -0.5972     1.2716 H       
  30 H30           -2.6266     0.4733    -0.0877 H       
  31 H31            2.9205     3.4078    -1.8474 H       
  32 H32            5.7969     5.5701     0.2188 H       
  33 H33            1.9238     5.0897     1.9583 H       
  34 H34            1.7575    -2.3537     1.4296 H       
  35 H35            2.5508    -4.6146     1.7348 H       
  36 H36            4.5032    -6.0819     2.1847 H       
  37 H37            6.9896    -2.6074     2.1014 H       
  38 H38           -1.1184    -2.1717    -0.3033 H       
  39 H39           -2.8243    -1.9110    -0.7393 H       
  40 H40           -1.5360    -1.1011    -1.6627 H       
@<TRIPOS>BOND
   1    1    2 ar
   2    1    6 ar
   3    1   27 1
   4    2    3 ar
   5    2    7 1
   6    3    4 ar
   7    4    5 ar
   8    4   15 1
   9    5    6 ar
  10    5   28 1
  11    6    8 1
  12    7   24 1
  13    7   29 1
  14    7   30 1
  15    8    9 1
  16    9   10 ar
  17    9   14 ar
  18   10   11 ar
  19   10   31 1
  20   11   12 ar
  21   12   13 ar
  22   12   32 1
  23   13   14 ar
  24   13   25 1
  25   14   33 1
  26   15   16 am
  27   15   17 2
  28   16   18 1
  29   16   34 1
  30   18   19 ar
  31   18   23 ar
  32   19   20 ar
  33   19   35 1
  34   20   21 ar
  35   20   36 1
  36   21   22 ar
  37   21   26 1
  38   22   23 ar
  39   22   37 1
  40   24   38 1
  41   24   39 1
  42   24   40 1

#	End of record

