#	Name: ASD05313228
#	Creating user name:	WinNT
#	Creation time:	15. 06. 2019 20:58

#	Modifying user name:	WinNT
#	Modification time:	15. 06. 2019 20:58

#	Program:	/corina/corina34_cracker 3.40 0067  02.08.2006

@<TRIPOS>MOLECULE
ASD05313228
  36   38    0    0    0
SMALL
NO_CHARGES


@<TRIPOS>ATOM
   1 C1            -0.0740     0.8179     1.0264 C.2     
   2 C2             0.1129    -0.6201     0.5976 C.3     
   3 N3             0.9276     1.7303     1.0529 N.pl3   
   4 N4             1.4556    -0.7207    -0.0035 N.am    
   5 C5             2.5695    -0.0398     0.6740 C.3     
   6 C6             2.3156     1.4718     0.6643 C.3     
   7 N7            -1.1709     1.3885     1.4268 N.2     
   8 C8            -0.9165     2.6736     1.7240 C.2     
   9 C9             0.3935     2.9043     1.4970 C.2     
  10 C10           -1.9184     3.6808     2.2269 C.3     
  11 F11           -3.1452     3.0467     2.4502 F       
  12 F12           -1.4574     4.2395     3.4238 F       
  13 F13           -2.0825     4.6913     1.2734 F       
  14 C14            1.6564    -1.4165    -1.1402 C.2     
  15 O15            2.7485    -1.4065    -1.6740 O.2     
  16 C16            0.5490    -2.1914    -1.7375 C.ar    
  17 C17            0.3190    -2.1396    -3.1148 C.ar    
  18 C18           -0.7180    -2.8667    -3.6657 C.ar    
  19 C19           -1.5273    -3.6438    -2.8570 C.ar    
  20 C20           -1.3047    -3.6988    -1.4923 C.ar    
  21 C21           -0.2685    -2.9831    -0.9293 C.ar    
  22 C22           -0.9685    -2.8127    -5.1507 C.3     
  23 F23           -2.0626    -3.6245    -5.4688 F       
  24 F24           -1.2404    -1.4939    -5.5302 F       
  25 F25            0.1648    -3.2697    -5.8317 F       
  26 Cl26           1.3335    -1.1635    -4.1306 Cl      
  27 Br27           1.3120     4.5378     1.7498 Br      
  28 H28            0.0431    -1.2784     1.4636 H       
  29 H29           -0.6448    -0.8902    -0.1379 H       
  30 H30            2.6388    -0.3909     1.7036 H       
  31 H31            3.5010    -0.2561     0.1509 H       
  32 H32            2.4924     1.8641    -0.3372 H       
  33 H33            2.9881     1.9585     1.3707 H       
  34 H34           -2.3372    -4.2102    -3.2926 H       
  35 H35           -1.9412    -4.3073    -0.8669 H       
  36 H36           -0.0932    -3.0314     0.1353 H       
@<TRIPOS>BOND
   1    1    2 1
   2    1    3 1
   3    1    7 2
   4    2    4 1
   5    2   28 1
   6    2   29 1
   7    3    6 1
   8    3    9 1
   9    4    5 1
  10    4   14 am
  11    5    6 1
  12    5   30 1
  13    5   31 1
  14    6   32 1
  15    6   33 1
  16    7    8 1
  17    8    9 2
  18    8   10 1
  19    9   27 1
  20   10   11 1
  21   10   12 1
  22   10   13 1
  23   14   15 2
  24   14   16 1
  25   16   17 ar
  26   16   21 ar
  27   17   18 ar
  28   17   26 1
  29   18   19 ar
  30   18   22 1
  31   19   20 ar
  32   19   34 1
  33   20   21 ar
  34   20   35 1
  35   21   36 1
  36   22   23 1
  37   22   24 1
  38   22   25 1

#	End of record

