#	Name: ASD01190234
#	Creating user name:	WinNT
#	Creation time:	15. 06. 2019 19:08

#	Modifying user name:	WinNT
#	Modification time:	15. 06. 2019 19:08

#	Program:	/corina/corina34_cracker 3.40 0067  02.08.2006

@<TRIPOS>MOLECULE
ASD01190234
  45   49    0    0    0
SMALL
NO_CHARGES


@<TRIPOS>ATOM
   1 C1            -0.0187     1.5258     0.0104 C.3     
   2 C2            -0.4070     2.4122     1.1955 C.3     
   3 C3            -1.5731    -0.4745     0.7978 C.ar    
   4 C4            -1.3451    -1.8509     0.9876 C.ar    
   5 C5            -2.3946    -2.6537     1.4237 C.ar    
   6 C6            -3.6230    -2.0597     1.6528 C.ar    
   7 C7            -3.7761    -0.6976     1.4450 C.ar    
   8 N8            -2.7733     0.0475     1.0327 N.ar    
   9 N9            -0.0286    -2.0959     0.6698 N.pl3   
  10 C10           -0.2959     0.0838     0.3496 C.2     
  11 C11            0.5799    -0.9333     0.2888 C.2     
  12 N12           -3.2519     2.9681    -4.3570 N.pl3   
  13 N13           -4.5053     2.8386    -3.7497 N.2     
  14 C14           -4.3654     2.4620    -2.5102 C.2     
  15 C15           -2.9371     2.3230    -2.2441 C.ar    
  16 C16           -2.1883     1.9557    -1.1204 C.ar    
  17 C17           -0.8262     1.9216    -1.1988 C.ar    
  18 C18           -0.1769     2.2488    -2.3830 C.ar    
  19 C19           -0.8862     2.6108    -3.4931 C.ar    
  20 C20           -2.2768     2.6542    -3.4432 C.ar    
  21 C21           -3.0280     3.3509    -5.6859 C.ar    
  22 C22           -3.9145     2.9601    -6.6808 C.ar    
  23 C23           -3.6920     3.3384    -7.9902 C.ar    
  24 C24           -2.5856     4.1069    -8.3114 C.ar    
  25 C25           -1.7003     4.4977    -7.3208 C.ar    
  26 C26           -1.9223     4.1263    -6.0093 C.ar    
  27 F27           -2.3694     4.4756    -9.5930 F       
  28 F28            0.3426     2.0448     2.3181 F       
  29 F29           -0.1496     3.7508     0.8806 F       
  30 F30           -1.7691     2.2516     1.4713 F       
  31 O31            1.3726     1.6898    -0.2713 O.3     
  32 H32           -2.2541    -3.7132     1.5791 H       
  33 H33           -4.4585    -2.6544     1.9914 H       
  34 H34           -4.7372    -0.2392     1.6254 H       
  35 H35            0.4028    -2.9637     0.7106 H       
  36 H36            1.6133    -0.8443    -0.0120 H       
  37 H37           -5.1641     2.2847    -1.8052 H       
  38 H38           -2.6856     1.7008    -0.1962 H       
  39 H39            0.9018     2.2168    -2.4262 H       
  40 H40           -0.3693     2.8631    -4.4071 H       
  41 H41           -4.7773     2.3605    -6.4308 H       
  42 H42           -4.3810     3.0344    -8.7643 H       
  43 H43           -0.8379     5.0967    -7.5734 H       
  44 H44           -1.2343     4.4353    -5.2363 H       
  45 H45            1.6893     1.1563    -1.0130 H       
@<TRIPOS>BOND
   1    1    2 1
   2    1   10 1
   3    1   17 1
   4    1   31 1
   5    2   28 1
   6    2   29 1
   7    2   30 1
   8    3    4 ar
   9    3    8 ar
  10    3   10 1
  11    4    5 ar
  12    4    9 1
  13    5    6 ar
  14    5   32 1
  15    6    7 ar
  16    6   33 1
  17    7    8 ar
  18    7   34 1
  19    9   11 1
  20    9   35 1
  21   10   11 2
  22   11   36 1
  23   12   13 1
  24   12   20 1
  25   12   21 1
  26   13   14 2
  27   14   15 1
  28   14   37 1
  29   15   16 ar
  30   15   20 ar
  31   16   17 ar
  32   16   38 1
  33   17   18 ar
  34   18   19 ar
  35   18   39 1
  36   19   20 ar
  37   19   40 1
  38   21   22 ar
  39   21   26 ar
  40   22   23 ar
  41   22   41 1
  42   23   24 ar
  43   23   42 1
  44   24   25 ar
  45   24   27 1
  46   25   26 ar
  47   25   43 1
  48   26   44 1
  49   31   45 1

#	End of record

