#	Name: ASD01883387
#	Creating user name:	WinNT
#	Creation time:	15. 06. 2019 19:46

#	Modifying user name:	WinNT
#	Modification time:	15. 06. 2019 19:46

#	Program:	/corina/corina34_cracker 3.40 0067  02.08.2006

@<TRIPOS>MOLECULE
ASD01883387
  58   60    0    0    0
SMALL
NO_CHARGES


@<TRIPOS>ATOM
   1 N1            -0.6813     1.9524     0.8666 N.am    
   2 C2            -1.4567     1.7054     1.9389 C.2     
   3 C3            -2.5858     0.8603     1.8133 C.2     
   4 C4            -2.8698     0.2965     0.5615 C.2     
   5 C5            -2.0241     0.5910    -0.5204 C.2     
   6 C6            -0.9619     1.4095    -0.3456 C.2     
   7 O7            -1.1871     2.2083     3.0165 O.2     
   8 C8            -3.4214     0.5863     2.9435 C.1     
   9 N9            -4.0843     0.3690     3.8400 N.1     
  10 C10            0.4842     2.8285     1.0092 C.3     
  11 C11            1.7080     1.9917     1.3875 C.3     
  12 C12            2.9252     2.9067     1.5363 C.3     
  13 C13            2.7064     3.8590     2.7137 C.3     
  14 C14            4.1727     2.0584     1.7916 C.3     
  15 O15           -3.9382    -0.5164     0.3988 O.3     
  16 C16           -3.6705    -1.8848     0.0861 C.3     
  17 C17           -4.9918    -2.6425    -0.0593 C.3     
  18 N18           -5.7587    -2.0792    -1.1785 N.3     
  19 C19           -6.9969    -2.8381    -1.4033 C.3     
  20 C20           -7.8032    -2.1738    -2.5217 C.3     
  21 N21           -6.9902    -2.1237    -3.7449 N.3     
  22 C22           -5.7521    -1.3647    -3.5201 C.3     
  23 C23           -4.9457    -2.0290    -2.4016 C.3     
  24 C24           -7.7159    -1.5906    -4.8039 C.ar    
  25 C25           -7.1177    -1.4599    -6.0528 C.ar    
  26 C26           -7.8517    -0.9282    -7.0980 C.ar    
  27 C27           -9.1640    -0.5437    -6.8579 C.ar    
  28 C28           -9.6944    -0.7019    -5.5931 C.ar    
  29 N29           -8.9724    -1.2167    -4.6161 N.ar    
  30 H30           -2.2245     0.1669    -1.4932 H       
  31 H31           -0.3190     1.6288    -1.1852 H       
  32 H32            0.6717     3.3403     0.0652 H       
  33 H33            0.2920     3.5647     1.7897 H       
  34 H34            1.5205     1.4800     2.3314 H       
  35 H35            1.9001     1.2555     0.6070 H       
  36 H36            3.0595     3.4844     0.6218 H       
  37 H37            3.5735     4.5109     2.8197 H       
  38 H38            1.8176     4.4634     2.5318 H       
  39 H39            2.5721     3.2814     3.6282 H       
  40 H40            4.3285     1.3800     0.9528 H       
  41 H41            5.0398     2.7103     1.8976 H       
  42 H42            4.0384     1.4808     2.7061 H       
  43 H43           -3.1142    -1.9416    -0.8495 H       
  44 H44           -3.0815    -2.3320     0.8868 H       
  45 H45           -4.7873    -3.6956    -0.2526 H       
  46 H46           -5.5684    -2.5473     0.8607 H       
  47 H47           -6.7499    -3.8601    -1.6907 H       
  48 H48           -7.5873    -2.8503    -0.4872 H       
  49 H49           -8.7082    -2.7515    -2.7100 H       
  50 H50           -8.0735    -1.1610    -2.2229 H       
  51 H51           -5.1616    -1.3525    -4.4362 H       
  52 H52           -5.9991    -0.3427    -3.2326 H       
  53 H53           -4.0407    -1.4513    -2.2133 H       
  54 H54           -4.6754    -3.0418    -2.7004 H       
  55 H55           -6.0941    -1.7690    -6.2044 H       
  56 H56           -7.4136    -0.8145    -8.0786 H       
  57 H57           -9.7637    -0.1249    -7.6525 H       
  58 H58          -10.7147    -0.4038    -5.4018 H       
@<TRIPOS>BOND
   1    1    2 am
   2    1   10 1
   3    1    6 1
   4    2    3 1
   5    2    7 2
   6    3    4 2
   7    3    8 1
   8    4    5 1
   9    4   15 1
  10    5    6 2
  11    5   30 1
  12    6   31 1
  13    8    9 3
  14   10   11 1
  15   10   32 1
  16   10   33 1
  17   11   12 1
  18   11   34 1
  19   11   35 1
  20   12   13 1
  21   12   14 1
  22   12   36 1
  23   13   37 1
  24   13   38 1
  25   13   39 1
  26   14   40 1
  27   14   41 1
  28   14   42 1
  29   15   16 1
  30   16   17 1
  31   16   43 1
  32   16   44 1
  33   17   18 1
  34   17   45 1
  35   17   46 1
  36   18   19 1
  37   18   23 1
  38   19   20 1
  39   19   47 1
  40   19   48 1
  41   20   21 1
  42   20   49 1
  43   20   50 1
  44   21   22 1
  45   21   24 1
  46   22   23 1
  47   22   51 1
  48   22   52 1
  49   23   53 1
  50   23   54 1
  51   24   25 ar
  52   24   29 ar
  53   25   26 ar
  54   25   55 1
  55   26   27 ar
  56   26   56 1
  57   27   28 ar
  58   27   57 1
  59   28   29 ar
  60   28   58 1

#	End of record

