#	Name: ASD01122024
#	Creating user name:	WinNT
#	Creation time:	15. 06. 2019 18:59

#	Modifying user name:	WinNT
#	Modification time:	15. 06. 2019 18:59

#	Program:	/corina/corina34_cracker 3.40 0067  02.08.2006

@<TRIPOS>MOLECULE
ASD01122024
  72   73    0    0    0
SMALL
NO_CHARGES


@<TRIPOS>ATOM
   1 S1            -1.2538     1.8686    -0.9290 S.3     
   2 C2            -0.8436     0.1553    -0.9498 C.2     
   3 C3             0.4232     0.0187    -0.5150 C.2     
   4 N4             1.0373     1.1563    -0.1876 N.2     
   5 C5             0.3546     2.2505    -0.3231 C.2     
   6 N6             0.8192     3.5235    -0.0355 N.pl3   
   7 C7            -1.7546    -0.9652    -1.3806 C.3     
   8 C8            -1.6488    -1.1550    -2.8951 C.3     
   9 C9            -2.4710    -2.3751    -3.3149 C.3     
  10 C10           -2.1855     0.0902    -3.6039 C.3     
  11 C11            1.0857    -1.2979    -0.4077 C.2     
  12 C12            2.3754    -1.5716    -0.7402 C.2     
  13 C13            2.5803    -2.9421    -0.4783 C.2     
  14 C14            1.4186    -3.4311    -0.0042 C.2     
  15 O15            0.5187    -2.4337     0.0420 O.3     
  16 P16            1.1195    -5.1493     0.4946 P.3     
  17 N17           -0.1785    -5.2051     1.5644 N.3     
  18 O18            0.8083    -5.9633    -0.7016 O.2     
  19 N19            2.4941    -5.7621     1.2480 N.3     
  20 C20            4.9349    -4.2955     1.7142 C.2     
  21 O21            3.9401    -3.6102     1.6882 O.2     
  22 O22            6.0416    -3.8491     2.3287 O.3     
  23 C23            0.1743    -6.3351     4.2667 C.2     
  24 O24           -0.0227    -6.2169     5.5892 O.3     
  25 O25            1.2792    -6.1774     3.8040 O.2     
  26 C26            3.6161    -5.8516     0.3040 C.3     
  27 C27            4.9330    -5.6516     1.0568 C.3     
  28 C28            3.6136    -7.2290    -0.3621 C.3     
  29 C29           -0.5239    -6.5926     1.9012 C.3     
  30 C30           -0.9828    -6.6644     3.3590 C.3     
  31 C31           -1.6524    -7.0736     0.9870 C.3     
  32 C32            1.1371    -5.8982     6.4025 C.3     
  33 C33            0.7198    -5.8050     7.8715 C.3     
  34 C34            5.9711    -2.5340     2.9402 C.3     
  35 C35            7.3168    -2.1993     3.5866 C.3     
  36 H36            1.7224     3.6467     0.2962 H       
  37 H37            0.2414     4.2916    -0.1659 H       
  38 H38           -1.4605    -1.8864    -0.8775 H       
  39 H39           -2.7831    -0.7193    -1.1162 H       
  40 H40           -0.6052    -1.3081    -3.1700 H       
  41 H41           -3.5146    -2.2220    -3.0400 H       
  42 H42           -2.3956    -2.5103    -4.3938 H       
  43 H43           -2.0886    -3.2621    -2.8099 H       
  44 H44           -1.5411     0.9408    -3.3819 H       
  45 H45           -2.2012    -0.0827    -4.6800 H       
  46 H46           -3.1966     0.2995    -3.2547 H       
  47 H47            3.1023    -0.8743    -1.1297 H       
  48 H48            3.4958    -3.4948    -0.6293 H       
  49 H49            0.0154    -4.6685     2.3966 H       
  50 H50            2.7426    -5.2076     2.0535 H       
  51 H51            3.5123    -5.0793    -0.4581 H       
  52 H52            5.7655    -5.7168     0.3562 H       
  53 H53            5.0375    -6.4246     1.8181 H       
  54 H54            3.6264    -8.0035     0.4048 H       
  55 H55            2.7164    -7.3361    -0.9717 H       
  56 H56            4.4962    -7.3287    -0.9939 H       
  57 H57            0.3509    -7.2283     1.7639 H       
  58 H58           -1.3414    -7.6702     3.5779 H       
  59 H59           -1.7879    -5.9481     3.5222 H       
  60 H60           -2.5272    -6.4379     1.1243 H       
  61 H61           -1.3255    -7.0225    -0.0516 H       
  62 H62           -1.9087    -8.1032     1.2369 H       
  63 H63            1.8879    -6.6799     6.2869 H       
  64 H64            1.5543    -4.9435     6.0821 H       
  65 H65            1.5905    -5.5657     8.4821 H       
  66 H66           -0.0309    -5.0233     7.9871 H       
  67 H67            0.3026    -6.7597     8.1920 H       
  68 H68            5.7394    -1.7906     2.1775 H       
  69 H69            5.1910    -2.5288     3.7016 H       
  70 H70            7.5485    -2.9428     4.3493 H       
  71 H71            8.0969    -2.2046     2.8252 H       
  72 H72            7.2639    -1.2121     4.0456 H       
@<TRIPOS>BOND
   1    1    2 1
   2    1    5 1
   3    2    3 2
   4    2    7 1
   5    3    4 1
   6    3   11 1
   7    4    5 2
   8    5    6 1
   9    6   36 1
  10    6   37 1
  11    7    8 1
  12    7   38 1
  13    7   39 1
  14    8    9 1
  15    8   10 1
  16    8   40 1
  17    9   41 1
  18    9   42 1
  19    9   43 1
  20   10   44 1
  21   10   45 1
  22   10   46 1
  23   11   12 2
  24   11   15 1
  25   12   13 1
  26   12   47 1
  27   13   14 2
  28   13   48 1
  29   14   15 1
  30   14   16 1
  31   16   17 1
  32   16   18 2
  33   16   19 1
  34   17   29 1
  35   17   49 1
  36   19   26 1
  37   19   50 1
  38   20   21 2
  39   20   22 1
  40   20   27 1
  41   22   34 1
  42   23   24 1
  43   23   25 2
  44   23   30 1
  45   24   32 1
  46   26   27 1
  47   26   28 1
  48   26   51 1
  49   27   52 1
  50   27   53 1
  51   28   54 1
  52   28   55 1
  53   28   56 1
  54   29   30 1
  55   29   31 1
  56   29   57 1
  57   30   58 1
  58   30   59 1
  59   31   60 1
  60   31   61 1
  61   31   62 1
  62   32   33 1
  63   32   63 1
  64   32   64 1
  65   33   65 1
  66   33   66 1
  67   33   67 1
  68   34   35 1
  69   34   68 1
  70   34   69 1
  71   35   70 1
  72   35   71 1
  73   35   72 1

#	End of record

