#	Name: ASD03330626
#	Creating user name:	WinNT
#	Creation time:	15. 06. 2019 20:37

#	Modifying user name:	WinNT
#	Modification time:	15. 06. 2019 20:37

#	Program:	/corina/corina34_cracker 3.40 0067  02.08.2006

@<TRIPOS>MOLECULE
ASD03330626
  65   67    0    0    0
SMALL
NO_CHARGES


@<TRIPOS>ATOM
   1 C1            -0.7821     1.7196     0.7885 C.2     
   2 N2            -1.0024     0.3986     0.9761 N.pl3   
   3 C3             0.5675     1.9121     0.8268 C.2     
   4 N4             1.1491     0.7103     1.0188 N.2     
   5 C5             0.2140    -0.2072     1.1040 C.2     
   6 C6             0.4405    -1.6540     1.3057 C.ar    
   7 C7             1.2656     3.2025     0.6841 C.2     
   8 O8             0.6274     4.2237     0.5142 O.2     
   9 C9             3.3052     4.5331     0.6002 C.3     
  10 N10            2.6113     3.2507     0.7420 N.am    
  11 C11            3.5043     4.8438    -0.8846 C.3     
  12 C12            2.1498     4.8236    -1.5960 C.3     
  13 C13            4.1389     6.2278    -1.0355 C.3     
  14 C14            4.4231     3.7907    -1.5073 C.3     
  15 C15            4.6471     4.4563     1.2817 C.2     
  16 N16            5.3704     5.5772     1.4739 N.am    
  17 O17            5.0761     3.3859     1.6572 O.2     
  18 C18            6.7057     5.4939     2.0709 C.3     
  19 C19           -2.3182    -0.2433     1.0418 C.3     
  20 C20           -3.1804     0.2564    -0.1216 C.3     
  21 C21           -3.9093     1.5321     0.2884 C.3     
  22 N22           -3.0924     2.3328     1.2029 N.3     
  23 C23           -1.8423     2.7660     0.5615 C.3     
  24 C24           -3.8486     3.4841     1.7135 C.3     
  25 C25            1.6192    -2.2466     0.8457 C.ar    
  26 C26            1.8302    -3.5833     1.0316 C.ar    
  27 C27            0.8645    -4.3597     1.6836 C.ar    
  28 C28           -0.3161    -3.7644     2.1439 C.ar    
  29 C29           -0.5218    -2.4264     1.9612 C.ar    
  30 C30            1.0898    -5.7986     1.8841 C.2     
  31 C31            0.1089    -6.6095     2.6911 C.3     
  32 O32            2.0651    -6.3329     1.4001 O.2     
  33 H33            2.7090     5.3216     1.0596 H       
  34 H34            3.1204     2.4362     0.8776 H       
  35 H35            1.4952     5.5738    -1.1524 H       
  36 H36            2.2917     5.0449    -2.6538 H       
  37 H37            1.6977     3.8376    -1.4885 H       
  38 H38            5.0993     6.2452    -0.5201 H       
  39 H39            4.2900     6.4449    -2.0929 H       
  40 H40            3.4797     6.9791    -0.6009 H       
  41 H41            3.9709     2.8048    -1.3998 H       
  42 H42            4.5649     4.0121    -2.5651 H       
  43 H43            5.3880     3.8051    -1.0005 H       
  44 H44            5.0069     6.4390     1.2169 H       
  45 H45            7.3454     4.8717     1.4449 H       
  46 H46            7.1329     6.4938     2.1464 H       
  47 H47            6.6322     5.0541     3.0655 H       
  48 H48           -2.2001    -1.3244     0.9695 H       
  49 H49           -2.7998     0.0090     1.9866 H       
  50 H50           -2.5438     0.4631    -0.9819 H       
  51 H51           -3.9099    -0.5088    -0.3869 H       
  52 H52           -4.1303     2.1202    -0.6023 H       
  53 H53           -4.8442     1.2672     0.7824 H       
  54 H54           -1.5190     3.7123     0.9954 H       
  55 H55           -2.0065     2.8921    -0.5087 H       
  56 H56           -4.7295     3.1312     2.2497 H       
  57 H57           -3.2185     4.0615     2.3900 H       
  58 H58           -4.1588     4.1137     0.8796 H       
  59 H59            2.3638    -1.6476     0.3425 H       
  60 H60            2.7413    -4.0412     0.6757 H       
  61 H61           -1.0619    -4.3619     2.6470 H       
  62 H62           -1.4322    -1.9668     2.3165 H       
  63 H63           -0.7401    -5.9838     2.9664 H       
  64 H64           -0.2398    -7.4541     2.0968 H       
  65 H65            0.5972    -6.9772     3.5936 H       
@<TRIPOS>BOND
   1    1    2 1
   2    1    3 2
   3    1   23 1
   4    2   19 1
   5    2    5 1
   6    3    4 1
   7    3    7 1
   8    4    5 2
   9    5    6 1
  10    6   25 ar
  11    6   29 ar
  12    7    8 2
  13    7   10 am
  14    9   10 1
  15    9   11 1
  16    9   15 1
  17    9   33 1
  18   10   34 1
  19   11   12 1
  20   11   13 1
  21   11   14 1
  22   12   35 1
  23   12   36 1
  24   12   37 1
  25   13   38 1
  26   13   39 1
  27   13   40 1
  28   14   41 1
  29   14   42 1
  30   14   43 1
  31   15   16 am
  32   15   17 2
  33   16   18 1
  34   16   44 1
  35   18   45 1
  36   18   46 1
  37   18   47 1
  38   19   20 1
  39   19   48 1
  40   19   49 1
  41   20   21 1
  42   20   50 1
  43   20   51 1
  44   21   22 1
  45   21   52 1
  46   21   53 1
  47   22   23 1
  48   22   24 1
  49   23   54 1
  50   23   55 1
  51   24   56 1
  52   24   57 1
  53   24   58 1
  54   25   26 ar
  55   25   59 1
  56   26   27 ar
  57   26   60 1
  58   27   28 ar
  59   27   30 1
  60   28   29 ar
  61   28   61 1
  62   29   62 1
  63   30   31 1
  64   30   32 2
  65   31   63 1
  66   31   64 1
  67   31   65 1

#	End of record

