#	Name: ASD02560534
#	Creating user name:	WinNT
#	Creation time:	15. 06. 2019 20:25

#	Modifying user name:	WinNT
#	Modification time:	15. 06. 2019 20:25

#	Program:	/corina/corina34_cracker 3.40 0067  02.08.2006

@<TRIPOS>MOLECULE
ASD02560534
  54   57    0    0    0
SMALL
NO_CHARGES


@<TRIPOS>ATOM
   1 N1            -0.0190     1.2805     0.0819 N.2     
   2 N2            -0.0010    -0.0042     0.0570 N.2     
   3 C3             1.1972     1.7474     0.0504 C.2     
   4 N4             2.0449     0.6723     0.0020 N.pl3   
   5 C5             1.2389    -0.4334     0.0078 C.2     
   6 S6             1.7651    -2.1143    -0.0410 S.3     
   7 C7             0.1588    -2.9476    -0.0038 C.3     
   8 C8             0.3661    -4.4399    -0.0385 C.2     
   9 O9             1.4893    -4.8951    -0.0839 O.2     
  10 N10           -0.6966    -5.2686    -0.0191 N.am    
  11 C11            3.4436     0.6994    -0.0446 C.ar    
  12 C12            4.1778     0.6908     1.1209 C.ar    
  13 C13            5.5690     0.7170     1.0860 C.ar    
  14 C14            6.2418     0.7522    -0.0972 C.ar    
  15 C15            5.5300     0.7620    -1.3086 C.ar    
  16 C16            4.1137     0.7298    -1.2853 C.ar    
  17 C17            6.1974     0.7981    -2.5453 C.ar    
  18 C18            5.4765     0.8068    -3.6996 C.ar    
  19 C19            4.0834     0.7804    -3.6755 C.ar    
  20 C20            3.4038     0.7398    -2.4965 C.ar    
  21 C21            7.7485     0.7810    -0.1075 C.3     
  22 C22           -0.5091    -6.6458    -0.1332 C.ar    
  23 C23           -1.5274    -7.4454    -0.6462 C.ar    
  24 C24           -1.3450    -8.8058    -0.7605 C.ar    
  25 C25           -0.1358    -9.3830    -0.3607 C.ar    
  26 C26            0.8836    -8.5768     0.1536 C.ar    
  27 C27            0.6965    -7.2169     0.2602 C.ar    
  28 C28            0.0633   -10.8392    -0.4810 C.2     
  29 O29           -0.8239   -11.5388    -0.9280 O.2     
  30 O30            1.2292   -11.3940    -0.0953 O.3     
  31 Cl31          -3.0282    -6.7270    -1.1415 Cl      
  32 C32            8.2302     2.2297    -0.2095 C.3     
  33 C33            1.5969     3.2004     0.0639 C.3     
  34 F34            0.6419     3.9403     0.7693 F       
  35 F35            2.8433     3.3354     0.6848 F       
  36 H36           -0.3707    -2.6755     0.9093 H       
  37 H37           -0.4291    -2.6423    -0.8694 H       
  38 H38           -1.5919    -4.9070     0.0742 H       
  39 H39            3.6682     0.6637     2.0727 H       
  40 H40            6.1238     0.7096     2.0125 H       
  41 H41            7.2766     0.8192    -2.5792 H       
  42 H42            5.9917     0.8349    -4.6484 H       
  43 H43            3.5349     0.7880    -4.6059 H       
  44 H44            2.3240     0.7193    -2.4929 H       
  45 H45            8.1267     0.3363     0.8130 H       
  46 H46            8.1169     0.2146    -0.9628 H       
  47 H47           -2.1349    -9.4258    -1.1581 H       
  48 H48            1.8185    -9.0197     0.4636 H       
  49 H49            1.4840    -6.5937     0.6576 H       
  50 H50            1.3129   -12.3523    -0.1932 H       
  51 H51            9.3199     2.2505    -0.2169 H       
  52 H52            7.8520     2.6744    -1.1300 H       
  53 H53            7.8618     2.7961     0.6458 H       
  54 H54            1.6591     3.5696    -0.9598 H       
@<TRIPOS>BOND
   1    1    2 1
   2    1    3 2
   3    2    5 2
   4    3    4 1
   5    3   33 1
   6    4    5 1
   7    4   11 1
   8    5    6 1
   9    6    7 1
  10    7    8 1
  11    7   36 1
  12    7   37 1
  13    8    9 2
  14    8   10 am
  15   10   22 1
  16   10   38 1
  17   11   12 ar
  18   11   16 ar
  19   12   13 ar
  20   12   39 1
  21   13   14 ar
  22   13   40 1
  23   14   15 ar
  24   14   21 1
  25   15   16 ar
  26   15   17 ar
  27   16   20 ar
  28   17   18 ar
  29   17   41 1
  30   18   19 ar
  31   18   42 1
  32   19   20 ar
  33   19   43 1
  34   20   44 1
  35   21   32 1
  36   21   45 1
  37   21   46 1
  38   22   23 ar
  39   22   27 ar
  40   23   24 ar
  41   23   31 1
  42   24   25 ar
  43   24   47 1
  44   25   26 ar
  45   25   28 1
  46   26   27 ar
  47   26   48 1
  48   27   49 1
  49   28   29 2
  50   28   30 1
  51   30   50 1
  52   32   51 1
  53   32   52 1
  54   32   53 1
  55   33   34 1
  56   33   35 1
  57   33   54 1

#	End of record

