#	Name: ASD01000076
#	Creating user name:	WinNT
#	Creation time:	15. 06. 2019 18:54

#	Modifying user name:	WinNT
#	Modification time:	15. 06. 2019 18:54

#	Program:	/corina/corina34_cracker 3.40 0067  02.08.2006

@<TRIPOS>MOLECULE
ASD01000076
  49   50    0    0    0
SMALL
NO_CHARGES


@<TRIPOS>ATOM
   1 C1            -0.1216     1.2827    -0.4351 C.ar    
   2 C2            -0.0011    -0.0722    -0.1889 C.ar    
   3 C3             1.2098    -0.7069    -0.3936 C.ar    
   4 C4             2.3001     0.0133    -0.8448 C.ar    
   5 C5             2.1793     1.3680    -1.0919 C.ar    
   6 C6             0.9688     2.0030    -0.8858 C.ar    
   7 C7             1.3415    -2.1837    -0.1243 C.3     
   8 C8             0.8612    -2.4845     1.2721 C.ar    
   9 C9             0.3279    -3.7252     1.5674 C.ar    
  10 C10           -0.1128    -4.0011     2.8482 C.ar    
  11 C11           -0.0197    -3.0364     3.8339 C.ar    
  12 C12            0.5144    -1.7960     3.5389 C.ar    
  13 C13            0.9590    -1.5216     2.2591 C.ar    
  14 S14            0.3393    -3.1082    -1.3207 S.3     
  15 C15            1.0567    -2.6236    -2.9148 C.3     
  16 C16            0.3087    -3.3308    -4.0468 C.3     
  17 C17            2.8081    -2.5980    -0.2594 C.3     
  18 C18            2.9296    -4.1119    -0.0740 C.3     
  19 C19            3.6400    -1.8850     0.8086 C.3     
  20 C20            4.3710    -4.5453    -0.3488 C.3     
  21 N21            0.4275    -4.7853    -3.8783 N.3     
  22 C22            0.9047    -2.9281    -5.3711 C.2     
  23 O23            1.6840    -3.6623    -5.9310 O.2     
  24 O24            0.5697    -1.7539    -5.9285 O.3     
  25 H25           -1.0688     1.7776    -0.2794 H       
  26 H26           -0.8528    -0.6349     0.1637 H       
  27 H27            3.2463    -0.4824    -1.0041 H       
  28 H28            3.0312     1.9308    -1.4437 H       
  29 H29            0.8743     3.0613    -1.0792 H       
  30 H30            0.2552    -4.4789     0.7972 H       
  31 H31           -0.5301    -4.9702     3.0787 H       
  32 H32           -0.3647    -3.2517     4.8345 H       
  33 H33            0.5867    -1.0422     4.3090 H       
  34 H34            1.3763    -0.5525     2.0286 H       
  35 H35            0.9686    -1.5443    -3.0398 H       
  36 H36            2.1086    -2.9077    -2.9412 H       
  37 H37           -0.7432    -3.0466    -4.0203 H       
  38 H38            3.1738    -2.3226    -1.2486 H       
  39 H39            2.6597    -4.3755     0.9487 H       
  40 H40            2.2593    -4.6180    -0.7686 H       
  41 H41            3.3439    -2.2390     1.7960 H       
  42 H42            4.6968    -2.0980     0.6480 H       
  43 H43            3.4718    -0.8101     0.7424 H       
  44 H44            4.4575    -5.6238    -0.2167 H       
  45 H45            4.6409    -4.2817    -1.3714 H       
  46 H46            5.0413    -4.0392     0.3459 H       
  47 H47            1.3941    -5.0740    -3.8993 H       
  48 H48           -0.0221    -5.0887    -3.0275 H       
  49 H49            0.9777    -1.5392    -6.7785 H       
@<TRIPOS>BOND
   1    1    2 ar
   2    1    6 ar
   3    1   25 1
   4    2    3 ar
   5    2   26 1
   6    3    4 ar
   7    3    7 1
   8    4    5 ar
   9    4   27 1
  10    5    6 ar
  11    5   28 1
  12    6   29 1
  13    7    8 1
  14    7   14 1
  15    7   17 1
  16    8    9 ar
  17    8   13 ar
  18    9   10 ar
  19    9   30 1
  20   10   11 ar
  21   10   31 1
  22   11   12 ar
  23   11   32 1
  24   12   13 ar
  25   12   33 1
  26   13   34 1
  27   14   15 1
  28   15   16 1
  29   15   35 1
  30   15   36 1
  31   16   22 1
  32   16   21 1
  33   16   37 1
  34   17   18 1
  35   17   19 1
  36   17   38 1
  37   18   20 1
  38   18   39 1
  39   18   40 1
  40   19   41 1
  41   19   42 1
  42   19   43 1
  43   20   44 1
  44   20   45 1
  45   20   46 1
  46   21   47 1
  47   21   48 1
  48   22   23 2
  49   22   24 1
  50   24   49 1

#	End of record

