#	Name: ASD04880174
#	Creating user name:	WinNT
#	Creation time:	15. 06. 2019 20:52

#	Modifying user name:	WinNT
#	Modification time:	15. 06. 2019 20:52

#	Program:	/corina/corina34_cracker 3.40 0067  02.08.2006

@<TRIPOS>MOLECULE
ASD04880174
  41   43    0    0    0
SMALL
NO_CHARGES


@<TRIPOS>ATOM
   1 C1            -0.0144     1.2119     0.0087 C.2     
   2 O2             0.0433    -0.0027    -0.0114 O.2     
   3 C3             1.2272     2.0105    -0.0173 C.ar    
   4 C4             1.1651     3.4009    -0.1350 C.ar    
   5 C5             2.3282     4.1406    -0.1582 C.ar    
   6 C6             3.5573     3.5098    -0.0656 C.ar    
   7 C7             3.6292     2.1345     0.0511 C.ar    
   8 C8             2.4711     1.3791     0.0816 C.ar    
   9 N9            -1.2119     1.8291     0.0492 N.am    
  10 N10           -1.4122     3.2011     0.1871 N.2     
  11 C11           -2.6517     3.5534     0.1993 C.2     
  12 C12           -3.5264     2.3285     0.0557 C.3     
  13 C13           -2.5211     1.1648    -0.0514 C.3     
  14 C14           -3.1413     4.9375     0.3328 C.ar    
  15 C15           -2.2338     5.9924     0.4590 C.ar    
  16 C16           -2.6984     7.2883     0.5834 C.ar    
  17 C17           -4.0686     7.5403     0.5828 C.ar    
  18 C18           -4.9700     6.4932     0.4576 C.ar    
  19 C19           -4.5140     5.1983     0.3277 C.ar    
  20 O20           -4.5234     8.8154     0.7057 O.3     
  21 C21           -5.9401     9.0025     0.6975 C.3     
  22 O22           -1.8179     8.3173     0.7069 O.3     
  23 C23           -0.4278     7.9861     0.7002 C.3     
  24 F24            2.5414     0.0352     0.2010 F       
  25 H25            0.2079     3.8956    -0.2081 H       
  26 H26            2.2805     5.2157    -0.2492 H       
  27 H27            4.4645     4.0955    -0.0851 H       
  28 H28            4.5914     1.6492     0.1225 H       
  29 H29           -4.1635     2.2088     0.9319 H       
  30 H30           -4.1288     2.3930    -0.8504 H       
  31 H31           -2.6205     0.6565    -1.0105 H       
  32 H32           -2.6597     0.4637     0.7716 H       
  33 H33           -1.1718     5.7957     0.4597 H       
  34 H34           -6.0313     6.6931     0.4579 H       
  35 H35           -5.2179     4.3855     0.2262 H       
  36 H36           -6.1671    10.0633     0.8027 H       
  37 H37           -6.3497     8.6348    -0.2433 H       
  38 H38           -6.3841     8.4519     1.5269 H       
  39 H39            0.1630     8.8960     0.8056 H       
  40 H40           -0.2105     7.3136     1.5300 H       
  41 H41           -0.1756     7.4961    -0.2402 H       
@<TRIPOS>BOND
   1    1    2 2
   2    1    3 1
   3    1    9 am
   4    3    4 ar
   5    3    8 ar
   6    4    5 ar
   7    4   25 1
   8    5    6 ar
   9    5   26 1
  10    6    7 ar
  11    6   27 1
  12    7    8 ar
  13    7   28 1
  14    8   24 1
  15    9   10 1
  16    9   13 1
  17   10   11 2
  18   11   12 1
  19   11   14 1
  20   12   13 1
  21   12   29 1
  22   12   30 1
  23   13   31 1
  24   13   32 1
  25   14   15 ar
  26   14   19 ar
  27   15   16 ar
  28   15   33 1
  29   16   17 ar
  30   16   22 1
  31   17   18 ar
  32   17   20 1
  33   18   19 ar
  34   18   34 1
  35   19   35 1
  36   20   21 1
  37   21   36 1
  38   21   37 1
  39   21   38 1
  40   22   23 1
  41   23   39 1
  42   23   40 1
  43   23   41 1

#	End of record

