#	Name: ASD03092819
#	Creating user name:	WinNT
#	Creation time:	15. 06. 2019 20:33

#	Modifying user name:	WinNT
#	Modification time:	15. 06. 2019 20:33

#	Program:	/corina/corina34_cracker 3.40 0067  02.08.2006

@<TRIPOS>MOLECULE
ASD03092819
  48   51    0    0    0
SMALL
NO_CHARGES


@<TRIPOS>ATOM
   1 C1             0.1941     0.4818     1.7478 C.3     
   2 O2             0.1462    -0.8408     1.2089 O.3     
   3 C3            -1.0851    -1.3710     0.9828 C.ar    
   4 C4            -2.2224    -0.6296     1.2689 C.ar    
   5 C5            -3.4732    -1.1672     1.0391 C.ar    
   6 C6            -3.5927    -2.4502     0.5215 C.ar    
   7 C7            -2.4540    -3.1917     0.2354 C.ar    
   8 C8            -1.2038    -2.6509     0.4607 C.ar    
   9 N9            -4.8624    -2.9969     0.2884 N.pl3   
  10 N10           -6.0075    -2.7734     1.0620 N.2     
  11 C11           -7.0128    -3.4355     0.5626 C.2     
  12 C12           -8.4156    -3.4510     1.1131 C.3     
  13 C13           -6.5689    -4.1353    -0.5794 C.ar    
  14 C14           -7.1970    -4.9970    -1.5060 C.ar    
  15 C15           -6.4200    -5.5190    -2.5386 C.ar    
  16 C16           -5.0783    -5.1788    -2.6184 C.ar    
  17 C17           -4.2425    -5.7454    -3.7371 C.3     
  18 N18           -4.5167    -4.3742    -1.7431 N.ar    
  19 C19           -5.2000    -3.8397    -0.7419 C.ar    
  20 C20           -8.6309    -5.3345    -1.3841 C.2     
  21 O21           -9.4228    -4.4943    -1.0036 O.2     
  22 N22           -9.0604    -6.5736    -1.6948 N.am    
  23 C23          -10.3931    -6.9219    -1.4855 C.ar    
  24 C24          -11.4032    -5.9816    -1.6459 C.ar    
  25 N25          -12.6642    -6.3067    -1.4490 N.ar    
  26 C26          -13.0287    -7.5240    -1.0950 C.ar    
  27 C27          -12.0946    -8.5232    -0.9128 C.ar    
  28 C28          -10.7404    -8.2329    -1.1138 C.ar    
  29 C29           -9.7372    -9.2402    -0.9413 C.1     
  30 N30           -8.9415   -10.0393    -0.8045 N.1     
  31 H31            1.2333     0.7832     1.8791 H       
  32 H32           -0.3004     1.1711     1.0633 H       
  33 H33           -0.3141     0.5000     2.7119 H       
  34 H34           -2.1293     0.3681     1.6718 H       
  35 H35           -4.3584    -0.5902     1.2622 H       
  36 H36           -2.5463    -4.1898    -0.1668 H       
  37 H37           -0.3181    -3.2258     0.2341 H       
  38 H38           -9.0235    -2.7205     0.5793 H       
  39 H39           -8.8453    -4.4445     0.9847 H       
  40 H40           -8.3927    -3.1992     2.1734 H       
  41 H41           -6.8587    -6.1822    -3.2693 H       
  42 H42           -4.2807    -5.0741    -4.5950 H       
  43 H43           -3.2102    -5.8491    -3.4027 H       
  44 H44           -4.6319    -6.7226    -4.0226 H       
  45 H45           -8.4416    -7.2230    -2.0641 H       
  46 H46          -11.1514    -4.9720    -1.9350 H       
  47 H47          -14.0757    -7.7422    -0.9448 H       
  48 H48          -12.4046    -9.5163    -0.6229 H       
@<TRIPOS>BOND
   1    1    2 1
   2    1   31 1
   3    1   32 1
   4    1   33 1
   5    2    3 1
   6    3    8 ar
   7    3    4 ar
   8    4    5 ar
   9    4   34 1
  10    5    6 ar
  11    5   35 1
  12    6    7 ar
  13    6    9 1
  14    7    8 ar
  15    7   36 1
  16    8   37 1
  17    9   19 1
  18    9   10 1
  19   10   11 2
  20   11   12 1
  21   11   13 1
  22   12   38 1
  23   12   39 1
  24   12   40 1
  25   13   19 ar
  26   13   14 ar
  27   14   15 ar
  28   14   20 1
  29   15   16 ar
  30   15   41 1
  31   16   17 1
  32   16   18 ar
  33   17   42 1
  34   17   43 1
  35   17   44 1
  36   18   19 ar
  37   20   21 2
  38   20   22 am
  39   22   23 1
  40   22   45 1
  41   23   28 ar
  42   23   24 ar
  43   24   25 ar
  44   24   46 1
  45   25   26 ar
  46   26   27 ar
  47   26   47 1
  48   27   28 ar
  49   27   48 1
  50   28   29 1
  51   29   30 3

#	End of record

