#	Name: ASD00190030
#	Creating user name:	WinNT
#	Creation time:	15. 06. 2019 18:33

#	Modifying user name:	WinNT
#	Modification time:	15. 06. 2019 18:33

#	Program:	/corina/corina34_cracker 3.40 0067  02.08.2006

@<TRIPOS>MOLECULE
ASD00190030
  48   53    0    0    0
SMALL
NO_CHARGES


@<TRIPOS>ATOM
   1 C1             0.1166     1.4517    -1.1489 C.ar    
   2 C2             0.1569     0.1041    -1.3491 C.ar    
   3 C3             1.3347    -0.6128    -1.1656 C.ar    
   4 C4             2.4815     0.0180    -0.7801 C.ar    
   5 C5             2.4737     1.4002    -0.5670 C.ar    
   6 C6             1.2768     2.1340    -0.7521 C.ar    
   7 C7             3.6705     2.1208    -0.1555 C.ar    
   8 C8             3.5709     3.5028     0.0342 C.ar    
   9 C9             2.3252     4.1350    -0.1790 C.ar    
  10 N10            1.2613     3.4599    -0.5501 N.ar    
  11 N11            4.9678     1.7842     0.1165 N.pl3   
  12 C12            5.6207     2.9288     0.4574 C.2     
  13 N13            4.7981     3.9373     0.4084 N.2     
  14 N14            2.2232     5.5040     0.0086 N.pl3   
  15 C15            0.9775     6.1307    -0.0816 C.ar    
  16 C16            7.0768     3.0160     0.8359 C.3     
  17 C17            7.2515     2.7081     2.3334 C.3     
  18 C18            8.1615     1.4658     2.4246 C.3     
  19 C19            8.9489     1.4729     1.0908 C.3     
  20 C20            7.8867     1.9500     0.0694 C.3     
  21 C21           -0.1597     5.4615     0.3321 C.ar    
  22 C22           -1.3988     6.0880     0.2417 C.ar    
  23 C23           -1.4824     7.3971    -0.2701 C.ar    
  24 C24           -0.3166     8.0560    -0.6835 C.ar    
  25 C25            0.8898     7.4308    -0.5835 C.ar    
  26 N26           -2.6785     5.7086     0.5581 N.pl3   
  27 N27           -3.5367     6.7697     0.2451 N.2     
  28 C28           -2.8502     7.7630    -0.2400 C.2     
  29 H29           -0.8051     1.9938    -1.2998 H       
  30 H30           -0.7395    -0.4151    -1.6545 H       
  31 H31            1.3414    -1.6802    -1.3296 H       
  32 H32            3.3909    -0.5475    -0.6399 H       
  33 H33            5.3515     0.8943     0.0747 H       
  34 H34            3.0165     6.0274     0.2025 H       
  35 H35            7.4617     4.0108     0.6118 H       
  36 H36            7.7219     3.5533     2.8359 H       
  37 H37            6.2831     2.4957     2.7863 H       
  38 H38            8.8433     1.5536     3.2706 H       
  39 H39            7.5622     0.5593     2.5090 H       
  40 H40            9.7820     2.1742     1.1378 H       
  41 H41            9.2995     0.4708     0.8439 H       
  42 H42            7.2430     1.1216    -0.2266 H       
  43 H43            8.3680     2.3911    -0.8034 H       
  44 H44           -0.0865     4.4575     0.7232 H       
  45 H45           -0.3740     9.0600    -1.0773 H       
  46 H46            1.7856     7.9423    -0.9032 H       
  47 H47           -2.9429     4.8540     0.9330 H       
  48 H48           -3.2561     8.7094    -0.5655 H       
@<TRIPOS>BOND
   1    1    2 ar
   2    1    6 ar
   3    1   29 1
   4    2    3 ar
   5    2   30 1
   6    3    4 ar
   7    3   31 1
   8    4    5 ar
   9    4   32 1
  10    5    6 ar
  11    5    7 ar
  12    6   10 ar
  13    7    8 ar
  14    7   11 1
  15    8    9 ar
  16    8   13 1
  17    9   10 ar
  18    9   14 1
  19   11   12 1
  20   11   33 1
  21   12   13 2
  22   12   16 1
  23   14   15 1
  24   14   34 1
  25   15   21 ar
  26   15   25 ar
  27   16   17 1
  28   16   20 1
  29   16   35 1
  30   17   18 1
  31   17   36 1
  32   17   37 1
  33   18   19 1
  34   18   38 1
  35   18   39 1
  36   19   20 1
  37   19   40 1
  38   19   41 1
  39   20   42 1
  40   20   43 1
  41   21   22 ar
  42   21   44 1
  43   22   23 ar
  44   22   26 1
  45   23   24 ar
  46   23   28 1
  47   24   25 ar
  48   24   45 1
  49   25   46 1
  50   26   27 1
  51   26   47 1
  52   27   28 2
  53   28   48 1

#	End of record

