#	Name: ASD03091627
#	Creating user name:	WinNT
#	Creation time:	15. 06. 2019 20:31

#	Modifying user name:	WinNT
#	Modification time:	15. 06. 2019 20:31

#	Program:	/corina/corina34_cracker 3.40 0067  02.08.2006

@<TRIPOS>MOLECULE
ASD03091627
  21   22    0    0    0
SMALL
NO_CHARGES


@<TRIPOS>ATOM
   1 C1            -0.0161     1.3334     0.0094 C.2     
   2 C2             0.0021    -0.0041     0.0020 C.2     
   3 C3             1.2765    -0.5926    -0.0133 C.ar    
   4 C4             2.3070     0.3564    -0.0181 C.ar    
   5 S5             1.6171     1.9754    -0.0028 S.3     
   6 C6             3.6408    -0.0640    -0.0330 C.ar    
   7 C7             3.9425    -1.4048    -0.0431 C.ar    
   8 C8             2.9243    -2.3501    -0.0385 C.ar    
   9 C9             1.6204    -1.9656    -0.0235 C.ar    
  10 C10           -1.2351     2.1520     0.0198 C.2     
  11 O11           -2.3267     1.6168     0.0223 O.2     
  12 O12           -1.1438     3.4973     0.0267 O.3     
  13 C13            3.2690    -3.8171    -0.0502 C.3     
  14 F14            4.6596    -3.9693    -0.0647 F       
  15 F15            2.7448    -4.4283     1.0939 F       
  16 F16            2.7224    -4.4154    -1.1905 F       
  17 H17           -0.9037    -0.5922     0.0079 H       
  18 H18            4.4359     0.6669    -0.0371 H       
  19 H19            4.9740    -1.7245    -0.0550 H       
  20 H20            0.8412    -2.7134    -0.0198 H       
  21 H21           -1.9737     3.9936     0.0335 H       
@<TRIPOS>BOND
   1    1    2 2
   2    1    5 1
   3    1   10 1
   4    2    3 1
   5    2   17 1
   6    3    4 ar
   7    3    9 ar
   8    4    5 1
   9    4    6 ar
  10    6    7 ar
  11    6   18 1
  12    7    8 ar
  13    7   19 1
  14    8    9 ar
  15    8   13 1
  16    9   20 1
  17   10   11 2
  18   10   12 1
  19   12   21 1
  20   13   14 1
  21   13   15 1
  22   13   16 1

#	End of record

