#	Name: ASD09720054
#	Creating user name:	WinNT
#	Creation time:	15. 06. 2019 21:22

#	Modifying user name:	WinNT
#	Modification time:	15. 06. 2019 21:22

#	Program:	/corina/corina34_cracker 3.40 0067  02.08.2006

@<TRIPOS>MOLECULE
ASD09720054
  58   59    0    0    0
SMALL
NO_CHARGES


@<TRIPOS>ATOM
   1 C1            -0.0335     1.4711    -0.0118 C.ar    
   2 C2             0.0021    -0.0041     0.0020 C.2     
   3 N3            -0.9007    -0.6668     0.6498 N.2     
   4 C4             1.0899    -0.7386    -0.7383 C.3     
   5 O5            -1.8439     0.0200     1.4521 O.3     
   6 S6             0.8612    -2.5262    -0.5318 S.3     
   7 C7             2.2023    -3.2062    -1.4504 C.ar    
   8 C8             2.3655    -4.5841    -1.5282 C.ar    
   9 C9             3.4176    -5.1134    -2.2489 C.ar    
  10 C10            4.3087    -4.2740    -2.8925 C.ar    
  11 C11            4.1497    -2.9023    -2.8169 C.ar    
  12 C12            3.0960    -2.3660    -2.1035 C.ar    
  13 C13            1.1603     2.1991    -0.0583 C.ar    
  14 C14            1.1333     3.5762    -0.0709 C.ar    
  15 C15           -0.0789     4.2523    -0.0378 C.ar    
  16 C16           -1.2829     3.5323     0.0084 C.ar    
  17 C17           -1.2556     2.1385     0.0155 C.ar    
  18 C18            2.4243     4.3519    -0.1205 C.3     
  19 C19            3.6038     3.3778    -0.1493 C.3     
  20 C20            2.4494     5.2205    -1.3799 C.3     
  21 C21            2.5305     5.2450     1.1172 C.3     
  22 O22           -0.0996     5.6077    -0.0495 O.3     
  23 C23           -2.5718     4.2473     0.0437 C.2     
  24 O24           -3.7261     3.5536     0.0881 O.3     
  25 O25           -2.5931     5.4621     0.0328 O.2     
  26 C26           -4.9569     4.3232     0.1209 C.3     
  27 C27           -5.0481     5.1932    -1.1344 C.3     
  28 C28           -6.1531     3.3705     0.1691 C.3     
  29 C29           -4.9665     5.2170     1.3627 C.3     
  30 H30            1.0427    -0.4863    -1.7977 H       
  31 H31            2.0615    -0.4480    -0.3386 H       
  32 H32           -2.4779    -0.5592     1.8967 H       
  33 H33            1.6704    -5.2401    -1.0253 H       
  34 H34            3.5451    -6.1841    -2.3099 H       
  35 H35            5.1309    -4.6908    -3.4553 H       
  36 H36            4.8476    -2.2498    -3.3205 H       
  37 H37            2.9725    -1.2947    -2.0448 H       
  38 H38            2.1067     1.6794    -0.0839 H       
  39 H39           -2.1783     1.5784     0.0510 H       
  40 H40            3.5281     2.7415    -1.0310 H       
  41 H41            4.5376     3.9389    -0.1851 H       
  42 H42            3.5859     2.7590     0.7479 H       
  43 H43            1.6091     5.9144    -1.3594 H       
  44 H44            3.3832     5.7815    -1.4157 H       
  45 H45            2.3738     4.5842    -2.2616 H       
  46 H46            2.5127     4.6263     2.0144 H       
  47 H47            3.4644     5.8061     1.0813 H       
  48 H48            1.6903     5.9390     1.1377 H       
  49 H49           -0.1343     5.9928    -0.9358 H       
  50 H50           -5.0412     4.5564    -2.0190 H       
  51 H51           -5.9720     5.7710    -1.1097 H       
  52 H52           -4.1959     5.8720    -1.1687 H       
  53 H53           -6.0881     2.7507     1.0634 H       
  54 H54           -7.0770     3.9482     0.1938 H       
  55 H55           -6.1463     2.7337    -0.7155 H       
  56 H56           -4.1143     5.8958     1.3284 H       
  57 H57           -5.8904     5.7948     1.3873 H       
  58 H58           -4.9016     4.5972     2.2570 H       
@<TRIPOS>BOND
   1    1    2 1
   2    1   13 ar
   3    1   17 ar
   4    2    3 2
   5    2    4 1
   6    3    5 1
   7    4    6 1
   8    4   30 1
   9    4   31 1
  10    5   32 1
  11    6    7 1
  12    7    8 ar
  13    7   12 ar
  14    8    9 ar
  15    8   33 1
  16    9   10 ar
  17    9   34 1
  18   10   11 ar
  19   10   35 1
  20   11   12 ar
  21   11   36 1
  22   12   37 1
  23   13   14 ar
  24   13   38 1
  25   14   15 ar
  26   14   18 1
  27   15   16 ar
  28   15   22 1
  29   16   17 ar
  30   16   23 1
  31   17   39 1
  32   18   19 1
  33   18   20 1
  34   18   21 1
  35   19   40 1
  36   19   41 1
  37   19   42 1
  38   20   43 1
  39   20   44 1
  40   20   45 1
  41   21   46 1
  42   21   47 1
  43   21   48 1
  44   22   49 1
  45   23   24 1
  46   23   25 2
  47   24   26 1
  48   26   27 1
  49   26   28 1
  50   26   29 1
  51   27   50 1
  52   27   51 1
  53   27   52 1
  54   28   53 1
  55   28   54 1
  56   28   55 1
  57   29   56 1
  58   29   57 1
  59   29   58 1

#	End of record

