#	Name: ASD03730708
#	Creating user name:	WinNT
#	Creation time:	15. 06. 2019 20:44

#	Modifying user name:	WinNT
#	Modification time:	15. 06. 2019 20:44

#	Program:	/corina/corina34_cracker 3.40 0067  02.08.2006

@<TRIPOS>MOLECULE
ASD03730708
  59   65    0    0    0
SMALL
NO_CHARGES


@<TRIPOS>ATOM
   1 C1             1.3560    -1.2439    -2.5621 C.2     
   2 C2             0.7454    -1.4891    -1.2385 C.ar    
   3 C3             1.4845    -1.2714    -0.0743 C.ar    
   4 C4             0.9088    -1.5022     1.1577 C.ar    
   5 C5            -0.3985    -1.9484     1.2413 C.ar    
   6 C6            -1.1363    -2.1664     0.0915 C.ar    
   7 C7            -0.5744    -1.9336    -1.1469 C.ar    
   8 O8             2.4747    -0.7741    -2.6379 O.2     
   9 N9             0.6747    -1.5465    -3.6850 N.am    
  10 C10            2.9084    -0.7860    -0.1634 C.3     
  11 O11            1.4240    -3.3801     6.3756 O.3     
  12 C12            1.6419    -3.4647     7.7963 C.3     
  13 O13            3.0741    -3.3982     7.9274 O.3     
  14 C14            3.5092    -2.6996     6.8377 C.ar    
  15 C15            2.4945    -2.6897     5.8835 C.ar    
  16 C16            4.7083    -2.0601     6.5790 C.ar    
  17 C17            4.9113    -1.4055     5.3678 C.ar    
  18 C18            3.8933    -1.4096     4.4191 C.ar    
  19 C19            2.6943    -2.0411     4.6765 C.ar    
  20 O20            5.9968    -0.7086     4.9247 O.3     
  21 C21            4.4167    -0.6570     3.2252 C.3     
  22 C22            5.9262    -0.5802     3.4915 C.3     
  23 N23            3.4078    -0.4878     1.1812 N.am    
  24 C24            4.1111    -1.3580     1.9329 C.2     
  25 C25            3.8016     0.7048     3.0941 C.ar    
  26 C26            3.7353     1.8025     3.9228 C.ar    
  27 C27            3.0789     2.9468     3.5059 C.ar    
  28 C28            2.4892     2.9852     2.2554 C.ar    
  29 C29            2.5521     1.8879     1.4221 C.ar    
  30 C30            3.2111     0.7319     1.8333 C.ar    
  31 O31            4.4342    -2.4859     1.6256 O.2     
  32 C32            1.2360    -1.2762    -4.9384 C.ar    
  33 C33            0.5977    -1.7091    -6.0961 C.ar    
  34 C34            1.1555    -1.4395    -7.3322 C.ar    
  35 C35            2.3463    -0.7410    -7.4172 C.ar    
  36 C36            2.9825    -0.3103    -6.2679 C.ar    
  37 C37            2.4277    -0.5707    -5.0294 C.ar    
  38 F38           -0.5649    -2.3921    -6.0128 F       
  39 H39            1.4795    -1.3346     2.0591 H       
  40 H40           -0.8446    -2.1275     2.2084 H       
  41 H41           -2.1560    -2.5150     0.1637 H       
  42 H42           -1.1530    -2.0996    -2.0436 H       
  43 H43           -0.2046    -1.9515    -3.6245 H       
  44 H44            3.5281    -1.5591    -0.6179 H       
  45 H45            2.9472     0.1162    -0.7738 H       
  46 H46            1.1712    -2.6244     8.3066 H       
  47 H47            1.2651    -4.4104     8.1859 H       
  48 H48            5.4921    -2.0688     7.3220 H       
  49 H49            1.9096    -2.0299     3.9346 H       
  50 H50            6.3279     0.3802     3.1687 H       
  51 H51            6.4479    -1.4032     3.0030 H       
  52 H52            4.1963     1.7703     4.8989 H       
  53 H53            3.0275     3.8083     4.1552 H       
  54 H54            1.9768     3.8784     1.9300 H       
  55 H55            2.0887     1.9252     0.4473 H       
  56 H56            0.6612    -1.7749    -8.2320 H       
  57 H57            2.7803    -0.5319    -8.3838 H       
  58 H58            3.9125     0.2342    -6.3383 H       
  59 H59            2.9237    -0.2298    -4.1326 H       
@<TRIPOS>BOND
   1    1    2 1
   2    1    8 2
   3    1    9 am
   4    2    3 ar
   5    2    7 ar
   6    3    4 ar
   7    3   10 1
   8    4    5 ar
   9    4   39 1
  10    5    6 ar
  11    5   40 1
  12    6    7 ar
  13    6   41 1
  14    7   42 1
  15    9   32 1
  16    9   43 1
  17   10   23 1
  18   10   44 1
  19   10   45 1
  20   11   12 1
  21   11   15 1
  22   12   13 1
  23   12   46 1
  24   12   47 1
  25   13   14 1
  26   14   15 ar
  27   14   16 ar
  28   15   19 ar
  29   16   17 ar
  30   16   48 1
  31   17   18 ar
  32   17   20 1
  33   18   19 ar
  34   18   21 1
  35   19   49 1
  36   20   22 1
  37   21   22 1
  38   21   24 1
  39   21   25 1
  40   22   50 1
  41   22   51 1
  42   23   24 am
  43   23   30 1
  44   24   31 2
  45   25   26 ar
  46   25   30 ar
  47   26   27 ar
  48   26   52 1
  49   27   28 ar
  50   27   53 1
  51   28   29 ar
  52   28   54 1
  53   29   30 ar
  54   29   55 1
  55   32   33 ar
  56   32   37 ar
  57   33   34 ar
  58   33   38 1
  59   34   35 ar
  60   34   56 1
  61   35   36 ar
  62   35   57 1
  63   36   37 ar
  64   36   58 1
  65   37   59 1

#	End of record

