#	Name: ASD01040037
#	Creating user name:	WinNT
#	Creation time:	15. 06. 2019 18:58

#	Modifying user name:	WinNT
#	Modification time:	15. 06. 2019 18:58

#	Program:	/corina/corina34_cracker 3.40 0067  02.08.2006

@<TRIPOS>MOLECULE
ASD01040037
  38   40    0    0    0
SMALL
NO_CHARGES


@<TRIPOS>ATOM
   1 O1             1.3463     1.2547    -0.3349 O.3     
   2 C2             1.0998    -0.0791    -0.2714 C.ar    
   3 C3             1.6264    -0.9278    -1.2373 C.ar    
   4 C4             1.3786    -2.2816    -1.1764 C.ar    
   5 C5             0.5967    -2.8007    -0.1419 C.ar    
   6 C6             0.3288    -4.2523    -0.0725 C.2     
   7 C7             0.4493    -4.9641     1.2143 C.ar    
   8 C8             0.9312    -4.2958     2.3432 C.ar    
   9 C9             1.0418    -4.9631     3.5422 C.ar    
  10 C10            0.6758    -6.3019     3.6348 C.ar    
  11 O11            0.7883    -6.9531     4.8209 O.3     
  12 C12            0.1960    -6.9742     2.5204 C.ar    
  13 C13            0.0753    -6.3123     1.3108 C.ar    
  14 O14           -0.3988    -6.9671     0.2205 O.3     
  15 N15           -0.0170    -4.9095    -1.1573 N.2     
  16 C16           -0.2401    -4.2338    -2.3231 C.ar    
  17 C17            0.4359    -4.6040    -3.4893 C.ar    
  18 C18            0.2063    -3.9178    -4.6630 C.ar    
  19 C19           -0.6926    -2.8631    -4.6881 C.ar    
  20 F20           -0.9136    -2.1950    -5.8413 F       
  21 C21           -1.3661    -2.4911    -3.5352 C.ar    
  22 C22           -1.1496    -3.1729    -2.3564 C.ar    
  23 C23            0.0691    -1.9441     0.8272 C.ar    
  24 C24            0.3262    -0.5923     0.7624 C.ar    
  25 H25            2.1450     1.5299     0.1357 H       
  26 H26            2.2306    -0.5256    -2.0371 H       
  27 H27            1.7880    -2.9406    -1.9278 H       
  28 H28            1.2169    -3.2566     2.2749 H       
  29 H29            1.4143    -4.4455     4.4137 H       
  30 H30           -0.0031    -6.9021     5.3743 H       
  31 H31           -0.0872    -8.0136     2.5975 H       
  32 H32            0.2862    -7.4002    -0.3070 H       
  33 H33            1.1368    -5.4254    -3.4709 H       
  34 H34            0.7282    -4.2026    -5.5646 H       
  35 H35           -2.0652    -1.6684    -3.5613 H       
  36 H36           -1.6783    -2.8851    -1.4598 H       
  37 H37           -0.5363    -2.3417     1.6284 H       
  38 H38           -0.0777     0.0701     1.5138 H       
@<TRIPOS>BOND
   1    1    2 1
   2    1   25 1
   3    2   24 ar
   4    2    3 ar
   5    3    4 ar
   6    3   26 1
   7    4    5 ar
   8    4   27 1
   9    5   23 ar
  10    5    6 1
  11    6   15 2
  12    6    7 1
  13    7   13 ar
  14    7    8 ar
  15    8   28 1
  16    8    9 ar
  17    9   10 ar
  18    9   29 1
  19   10   12 ar
  20   10   11 1
  21   11   30 1
  22   12   13 ar
  23   12   31 1
  24   13   14 1
  25   14   32 1
  26   15   16 1
  27   16   17 ar
  28   16   22 ar
  29   17   18 ar
  30   17   33 1
  31   18   19 ar
  32   18   34 1
  33   19   20 1
  34   19   21 ar
  35   21   35 1
  36   21   22 ar
  37   22   36 1
  38   23   37 1
  39   23   24 ar
  40   24   38 1

#	End of record

