#	Name: ASD02030500
#	Creating user name:	WinNT
#	Creation time:	15. 06. 2019 20:15

#	Modifying user name:	WinNT
#	Modification time:	15. 06. 2019 20:15

#	Program:	/corina/corina34_cracker 3.40 0067  02.08.2006

@<TRIPOS>MOLECULE
ASD02030500
  63   67    0    0    0
SMALL
NO_CHARGES


@<TRIPOS>ATOM
   1 N1            -0.2102     1.4210    -0.1411 N.am    
   2 C2            -0.0211    -0.0126     0.1213 C.3     
   3 C3            -0.9180    -0.4181     1.2974 C.3     
   4 N4            -2.2767     0.0828     1.0463 N.am    
   5 C5            -2.4658     1.5164     0.7839 C.3     
   6 C6            -1.5695     1.9228    -0.3867 C.3     
   7 C7             0.8434     2.2615    -0.1508 C.2     
   8 C8             2.1855     1.7686     0.2251 C.2     
   9 N9             3.2648     2.5049     0.3797 N.2     
  10 N10            2.5172     0.4887     0.4751 N.2     
  11 C11            3.7916     0.4680     0.7722 C.2     
  12 N12            4.2456     1.7366     0.7085 N.pl3   
  13 O13            0.6901     3.4247    -0.4687 O.2     
  14 C14           -3.3303    -0.7576     1.0560 C.2     
  15 C15           -4.7021    -0.2251     0.9121 C.ar    
  16 O16           -3.1527    -1.9534     1.1831 O.2     
  17 C17           -1.5417     3.4478    -0.5067 C.3     
  18 C18           -2.1082     1.3120    -1.6819 C.3     
  19 C19            5.5616     2.1491     0.9572 C.ar    
  20 C20            5.9002     3.4916     0.8571 C.ar    
  21 C21            7.1992     3.8954     1.1036 C.ar    
  22 C22            8.1609     2.9624     1.4493 C.ar    
  23 C23            7.8255     1.6246     1.5496 C.ar    
  24 C24            6.5281     1.2164     1.3101 C.ar    
  25 Cl25           7.6244     5.5739     0.9787 Cl      
  26 C26           -5.6719    -0.9654     0.2385 C.ar    
  27 C27           -6.9601    -0.4573     0.1074 C.ar    
  28 C28           -7.2744     0.7880     0.6496 C.ar    
  29 C29           -6.3098     1.5187     1.3162 C.ar    
  30 C30           -5.0310     1.0186     1.4558 C.ar    
  31 C31           -7.9982    -1.2396    -0.6090 C.ar    
  32 C32           -9.2859    -0.7316    -0.7400 C.ar    
  33 C33          -10.2560    -1.4721    -1.4149 C.ar    
  34 C34           -9.9281    -2.7180    -1.9543 C.ar    
  35 C35           -8.6472    -3.2150    -1.8198 C.ar    
  36 C36           -7.6820    -2.4824    -1.1567 C.ar    
  37 C37          -11.5848    -0.9567    -1.5540 C.1     
  38 N38          -12.6389    -0.5479    -1.6644 N.1     
  39 H39           -0.2968    -0.5860    -0.7637 H       
  40 H40            1.0219    -0.2038     0.3737 H       
  41 H41           -0.9388    -1.5044     1.3841 H       
  42 H42           -0.5320     0.0176     2.2190 H       
  43 H43           -3.5088     1.7076     0.5315 H       
  44 H44           -2.1901     2.0898     1.6690 H       
  45 H45            4.3735    -0.4058     1.0255 H       
  46 H46           -1.0452     3.8720     0.3660 H       
  47 H47           -0.9978     3.7315    -1.4078 H       
  48 H48           -2.5622     3.8265    -0.5639 H       
  49 H49           -3.1214     1.6723    -1.8597 H       
  50 H50           -1.4678     1.6031    -2.5146 H       
  51 H51           -2.1190     0.2256    -1.5943 H       
  52 H52            5.1498     4.2197     0.5865 H       
  53 H53            9.1754     3.2795     1.6409 H       
  54 H54            8.5782     0.8986     1.8193 H       
  55 H55            6.2672     0.1713     1.3890 H       
  56 H56           -5.4241    -1.9296    -0.1803 H       
  57 H57           -8.2746     1.1827     0.5479 H       
  58 H58           -6.5587     2.4830     1.7339 H       
  59 H59           -4.2809     1.5942     1.9779 H       
  60 H60           -9.5339     0.2322    -0.3205 H       
  61 H61          -10.6776    -3.2935    -2.4771 H       
  62 H62           -8.3977    -4.1789    -2.2380 H       
  63 H63           -6.6817    -2.8768    -1.0553 H       
@<TRIPOS>BOND
   1    1    2 1
   2    1    7 am
   3    1    6 1
   4    2    3 1
   5    2   39 1
   6    2   40 1
   7    3    4 1
   8    3   41 1
   9    3   42 1
  10    4    5 1
  11    4   14 am
  12    5    6 1
  13    5   43 1
  14    5   44 1
  15    6   17 1
  16    6   18 1
  17    7    8 1
  18    7   13 2
  19    8    9 2
  20    8   10 1
  21    9   12 1
  22   10   11 2
  23   11   12 1
  24   11   45 1
  25   12   19 1
  26   14   15 1
  27   14   16 2
  28   15   26 ar
  29   15   30 ar
  30   17   46 1
  31   17   47 1
  32   17   48 1
  33   18   49 1
  34   18   50 1
  35   18   51 1
  36   19   20 ar
  37   19   24 ar
  38   20   21 ar
  39   20   52 1
  40   21   22 ar
  41   21   25 1
  42   22   23 ar
  43   22   53 1
  44   23   24 ar
  45   23   54 1
  46   24   55 1
  47   26   27 ar
  48   26   56 1
  49   27   28 ar
  50   27   31 1
  51   28   29 ar
  52   28   57 1
  53   29   30 ar
  54   29   58 1
  55   30   59 1
  56   31   32 ar
  57   31   36 ar
  58   32   33 ar
  59   32   60 1
  60   33   34 ar
  61   33   37 1
  62   34   35 ar
  63   34   61 1
  64   35   36 ar
  65   35   62 1
  66   36   63 1
  67   37   38 3

#	End of record

