#	Name: ASD01914998
#	Creating user name:	WinNT
#	Creation time:	15. 06. 2019 20:04

#	Modifying user name:	WinNT
#	Modification time:	15. 06. 2019 20:04

#	Program:	/corina/corina34_cracker 3.40 0067  02.08.2006

@<TRIPOS>MOLECULE
ASD01914998
  48   51    0    0    0
SMALL
NO_CHARGES


@<TRIPOS>ATOM
   1 C1            -0.2252     1.4608    -1.1225 C.ar    
   2 C2            -0.2364     0.0835    -1.2782 C.ar    
   3 C3             0.9425    -0.6378    -1.1508 C.ar    
   4 C4             2.1265     0.0158    -0.8687 C.ar    
   5 C5             2.1403     1.3889    -0.7130 C.ar    
   6 C6             0.9645     2.1145    -0.8398 C.ar    
   7 O7             0.9788     3.4648    -0.6871 O.3     
   8 C8             2.2396     4.0716    -0.3970 C.3     
   9 C9             2.0609     5.5619    -0.2628 C.2     
  10 C10            0.8539     6.2623    -0.3922 C.2     
  11 N11            3.0072     6.4323     0.0015 N.2     
  12 C12            1.1817     7.5732    -0.1933 C.2     
  13 C13            0.3653     8.7967    -0.1945 C.2     
  14 N14            2.5354     7.6159     0.0589 N.pl3   
  15 C15            3.2133     8.8841     0.3537 C.3     
  16 C16            2.4893    10.0214    -0.3654 C.3     
  17 N17            1.0415     9.9709    -0.1750 N.am    
  18 O18           -0.8503     8.7567    -0.2125 O.2     
  19 C19            0.3380    11.1618     0.0374 C.ar    
  20 C20           -0.9459    12.5864     1.4773 C.ar    
  21 C21           -0.2524    11.4103     1.2696 C.ar    
  22 C22            0.2340    12.0993    -0.9818 C.ar    
  23 C23           -0.4603    13.2742    -0.7698 C.ar    
  24 C24           -1.0523    13.5178     0.4581 C.ar    
  25 F25           -1.7312    14.6677     0.6634 F       
  26 C26            3.1903     9.1370     1.8624 C.3     
  27 O27           -1.4009    -0.5602    -1.5549 O.3     
  28 C28           -1.3381    -1.9802    -1.7023 C.3     
  29 H29           -1.1407     2.0243    -1.2257 H       
  30 H30            0.9343    -1.7110    -1.2720 H       
  31 H31            3.0427    -0.5473    -0.7692 H       
  32 H32            3.0671     1.8976    -0.4924 H       
  33 H33            2.6313     3.6671     0.5362 H       
  34 H34            2.9389     3.8609    -1.2062 H       
  35 H35           -0.1234     5.8540    -0.6034 H       
  36 H36            4.2458     8.8338     0.0080 H       
  37 H37            2.8614    10.9725     0.0153 H       
  38 H38            2.7086     9.9606    -1.4314 H       
  39 H39           -1.4054    12.7799     2.4353 H       
  40 H40           -0.1696    10.6841     2.0648 H       
  41 H41            0.6962    11.9100    -1.9393 H       
  42 H42           -0.5414    14.0036    -1.5621 H       
  43 H43            3.7035     8.3233     2.3751 H       
  44 H44            3.6939    10.0787     2.0807 H       
  45 H45            2.1574     9.1890     2.2065 H       
  46 H46           -0.6632    -2.2310    -2.5207 H       
  47 H47           -0.9698    -2.4255    -0.7781 H       
  48 H48           -2.3335    -2.3671    -1.9206 H       
@<TRIPOS>BOND
   1    1    2 ar
   2    1    6 ar
   3    1   29 1
   4    2    3 ar
   5    2   27 1
   6    3    4 ar
   7    3   30 1
   8    4    5 ar
   9    4   31 1
  10    5    6 ar
  11    5   32 1
  12    6    7 1
  13    7    8 1
  14    8    9 1
  15    8   33 1
  16    8   34 1
  17    9   11 2
  18    9   10 1
  19   10   12 2
  20   10   35 1
  21   11   14 1
  22   12   14 1
  23   12   13 1
  24   13   17 am
  25   13   18 2
  26   14   15 1
  27   15   16 1
  28   15   26 1
  29   15   36 1
  30   16   17 1
  31   16   37 1
  32   16   38 1
  33   17   19 1
  34   19   22 ar
  35   19   21 ar
  36   20   21 ar
  37   20   24 ar
  38   20   39 1
  39   21   40 1
  40   22   23 ar
  41   22   41 1
  42   23   24 ar
  43   23   42 1
  44   24   25 1
  45   26   43 1
  46   26   44 1
  47   26   45 1
  48   27   28 1
  49   28   46 1
  50   28   47 1
  51   28   48 1

#	End of record

