#	Name: ASD01411181
#	Creating user name:	WinNT
#	Creation time:	15. 06. 2019 19:19

#	Modifying user name:	WinNT
#	Modification time:	15. 06. 2019 19:19

#	Program:	/corina/corina34_cracker 3.40 0067  02.08.2006

@<TRIPOS>MOLECULE
ASD01411181
  75   79    0    0    0
SMALL
NO_CHARGES


@<TRIPOS>ATOM
   1 C1             0.1493     0.9196     0.2132 C.ar    
   2 C2             0.2927    -0.4453     0.2126 C.ar    
   3 C3             1.5546    -1.0358     0.2337 C.ar    
   4 C4             2.6820    -0.2264     0.2623 C.ar    
   5 C5             2.5438     1.1479     0.2654 C.ar    
   6 C6             1.2824     1.7277     0.2397 C.ar    
   7 P7            -1.1497    -1.5523     0.1898 P.3     
   8 N8            -0.5985    -3.0620     0.5517 N.2     
   9 C9             0.6762    -3.3049     0.5314 C.2     
  10 N10            1.6667    -2.4248     0.2193 N.pl3   
  11 C11            1.0947    -4.6752     0.8830 C.2     
  12 C12            0.2585    -5.6970     1.2242 C.2     
  13 C13            1.1394    -6.9140     1.4199 C.3     
  14 N14            2.5050    -6.4276     1.3999 N.am    
  15 C15            2.4780    -5.1549     0.9335 C.2     
  16 C16            3.7326    -7.0921     1.8471 C.3     
  17 C17            4.0590    -6.6526     3.2758 C.3     
  18 C18            5.2725    -7.4331     3.7849 C.3     
  19 C19            6.4739    -7.1558     2.8790 C.3     
  20 C20            5.5989    -6.9935     5.2136 C.3     
  21 C21            4.9582    -8.9304     3.7712 C.3     
  22 O22           -2.1366    -1.1178     1.2035 O.2     
  23 O23           -1.8230    -1.5484    -1.2726 O.3     
  24 O24           -1.0747    -5.6376     1.3673 O.3     
  25 O25            3.4586    -4.5129     0.6114 O.2     
  26 N26            1.1506     3.1208     0.2400 N.am    
  27 S27            0.6792     3.9077     1.6187 S.o2    
  28 O28            0.6475     5.2787     1.2464 O.2     
  29 O29           -0.5033     3.2305     2.0218 O.2     
  30 C30            2.0227     3.5991     2.7978 C.3     
  31 C31           -2.3445    -0.3679    -1.8862 C.3     
  32 C32           -2.9080    -0.7162    -3.2653 C.3     
  33 C33            1.8011    -9.1138     0.3914 C.3     
  34 C34            1.4868    -9.7688     1.7567 C.3     
  35 C35            0.2240    -9.0130     2.2737 C.3     
  36 C36            0.7693    -7.6225     2.7318 C.3     
  37 C37            0.8117    -7.9209     0.2924 C.3     
  38 C38           -0.4606    -8.6167     0.9170 C.3     
  39 H39           -0.8350     1.3633     0.1888 H       
  40 H40            3.6662    -0.6707     0.2825 H       
  41 H41            3.4225     1.7754     0.2877 H       
  42 H42            2.5254    -2.7969    -0.0357 H       
  43 H43            3.5904    -8.1725     1.8229 H       
  44 H44            4.5552    -6.8190     1.1861 H       
  45 H45            4.2829    -5.5859     3.2856 H       
  46 H46            3.2031    -6.8501     3.9212 H       
  47 H47            6.6978    -6.0891     2.8888 H       
  48 H48            7.3384    -7.7119     3.2417 H       
  49 H49            6.2414    -7.4690     1.8612 H       
  50 H50            4.7430    -7.1910     5.8590 H       
  51 H51            6.4634    -7.5496     5.5763 H       
  52 H52            5.8228    -5.9268     5.2234 H       
  53 H53            4.7257    -9.2435     2.7534 H       
  54 H54            5.8227    -9.4864     4.1339 H       
  55 H55            4.1023    -9.1279     4.4166 H       
  56 H56           -1.4951    -4.7806     1.2128 H       
  57 H57            1.3353     3.6256    -0.5675 H       
  58 H58            2.9358     4.0757     2.4411 H       
  59 H59            1.7541     4.0110     3.7706 H       
  60 H60            2.1856     2.5253     2.8903 H       
  61 H61           -3.1378     0.0452    -1.2633 H       
  62 H62           -1.5474     0.3677    -1.9946 H       
  63 H63           -3.3058     0.1842    -3.7333 H       
  64 H64           -2.1146    -1.1293    -3.8882 H       
  65 H65           -3.7050    -1.4518    -3.1569 H       
  66 H66            2.8327    -8.8199     0.3010 H       
  67 H67            1.5766    -9.8402    -0.4096 H       
  68 H68            1.2603   -10.8277     1.6254 H       
  69 H69            2.3217    -9.6415     2.4426 H       
  70 H70           -0.3939    -9.5476     2.9938 H       
  71 H71            1.6325    -7.7430     3.3823 H       
  72 H72           -0.0105    -7.0659     3.2566 H       
  73 H73            0.6671    -7.4920    -0.7042 H       
  74 H74           -0.7605    -9.4924     0.3411 H       
  75 H75           -1.2875    -7.9278     1.0536 H       
@<TRIPOS>BOND
   1    1    2 ar
   2    1    6 ar
   3    1   39 1
   4    2    3 ar
   5    2    7 1
   6    3    4 ar
   7    3   10 1
   8    4    5 ar
   9    4   40 1
  10    5    6 ar
  11    5   41 1
  12    6   26 1
  13    7    8 1
  14    7   22 2
  15    7   23 1
  16    8    9 2
  17    9   10 1
  18    9   11 1
  19   10   42 1
  20   11   12 2
  21   11   15 1
  22   12   13 1
  23   12   24 1
  24   13   14 1
  25   13   37 1
  26   13   36 1
  27   14   15 am
  28   14   16 1
  29   15   25 2
  30   16   17 1
  31   16   43 1
  32   16   44 1
  33   17   18 1
  34   17   45 1
  35   17   46 1
  36   18   19 1
  37   18   20 1
  38   18   21 1
  39   19   47 1
  40   19   48 1
  41   19   49 1
  42   20   50 1
  43   20   51 1
  44   20   52 1
  45   21   53 1
  46   21   54 1
  47   21   55 1
  48   23   31 1
  49   24   56 1
  50   26   27 am
  51   26   57 1
  52   27   28 2
  53   27   29 2
  54   27   30 1
  55   30   58 1
  56   30   59 1
  57   30   60 1
  58   31   32 1
  59   31   61 1
  60   31   62 1
  61   32   63 1
  62   32   64 1
  63   32   65 1
  64   33   34 1
  65   33   37 1
  66   33   66 1
  67   33   67 1
  68   34   35 1
  69   34   68 1
  70   34   69 1
  71   35   36 1
  72   35   38 1
  73   35   70 1
  74   36   71 1
  75   36   72 1
  76   37   38 1
  77   37   73 1
  78   38   74 1
  79   38   75 1

#	End of record

