#	Name: ASD04590767
#	Creating user name:	WinNT
#	Creation time:	15. 06. 2019 20:51

#	Modifying user name:	WinNT
#	Modification time:	15. 06. 2019 20:51

#	Program:	/corina/corina34_cracker 3.40 0067  02.08.2006

@<TRIPOS>MOLECULE
ASD04590767
  67   73    0    0    0
SMALL
NO_CHARGES


@<TRIPOS>ATOM
   1 N1            -2.3782    -2.7058     0.0204 N.ar    
   2 C2            -1.2117    -2.0738     0.0040 C.ar    
   3 N3            -0.0573    -2.7202    -0.0182 N.ar    
   4 C4            -0.0259    -4.0495    -0.0245 C.ar    
   5 C5            -1.2486    -4.7504    -0.0070 C.ar    
   6 C6            -2.4370    -4.0273     0.0156 C.ar    
   7 N7             0.9980    -4.9638    -0.0457 N.pl3   
   8 C8             0.4950    -6.2534    -0.0428 C.ar    
   9 C9            -0.9092    -6.1791    -0.0189 C.ar    
  10 C10            1.0915    -7.5075    -0.0583 C.ar    
  11 N11            0.3552    -8.6000    -0.0506 N.ar    
  12 C12           -0.9655    -8.5647    -0.0283 C.ar    
  13 C13           -1.6436    -7.3644    -0.0113 C.ar    
  14 C14            2.4226    -4.6227    -0.0686 C.3     
  15 N15           -1.2019    -0.6887     0.0098 N.pl3   
  16 C16           -2.4013     0.0175    -0.0802 C.ar    
  17 N17           -3.5340    -0.6390    -0.2721 N.ar    
  18 C18           -4.6918    -0.0124    -0.3634 C.ar    
  19 C19           -4.7605     1.3688    -0.2608 C.ar    
  20 C20           -3.5874     2.0945    -0.0583 C.ar    
  21 C21           -2.3937     1.4030     0.0384 C.ar    
  22 N22           -5.9924     2.0264    -0.3597 N.3     
  23 C23            2.7454    -3.7914    -1.3225 C.3     
  24 C24            3.2821    -2.4334    -0.8249 C.3     
  25 C25            3.8153    -2.7341     0.5979 C.3     
  26 C26            2.7744    -3.7409     1.1474 C.3     
  27 C27           -7.0848     1.0682    -0.5713 C.3     
  28 C28           -8.4265     1.8040    -0.5209 C.3     
  29 C29           -8.4464     2.8906    -1.5956 C.3     
  30 C30           -7.2679     3.8430    -1.3956 C.3     
  31 C31           -5.9626     3.0434    -1.4185 C.3     
  32 N32           -8.3794     2.2789    -2.9327 N.3     
  33 C33           -9.6123     2.6301    -3.6706 C.3     
  34 C34          -10.1157     3.9341    -3.0023 C.3     
  35 C35           -9.7682     3.6776    -1.5116 C.3     
  36 H36           -3.3898    -4.5356     0.0290 H       
  37 H37            2.1683    -7.5879    -0.0770 H       
  38 H38           -1.5222    -9.4902    -0.0233 H       
  39 H39           -2.7232    -7.3426     0.0072 H       
  40 H40            3.0241    -5.5316    -0.0581 H       
  41 H41           -0.3610    -0.2099     0.0765 H       
  42 H42           -5.5960    -0.5817    -0.5203 H       
  43 H43           -3.6110     3.1710     0.0253 H       
  44 H44           -1.4660     1.9332     0.1955 H       
  45 H45            3.5042    -4.2965    -1.9202 H       
  46 H46            1.8422    -3.6418    -1.9141 H       
  47 H47            4.0891    -2.0831    -1.4685 H       
  48 H48            2.4790    -1.6977    -0.7837 H       
  49 H49            4.8050    -3.1884     0.5516 H       
  50 H50            3.8331    -1.8278     1.2033 H       
  51 H51            1.8892    -3.2163     1.5070 H       
  52 H52            3.2107    -4.3447     1.9430 H       
  53 H53           -6.9676     0.5929    -1.5452 H       
  54 H54           -7.0578     0.3082     0.2094 H       
  55 H55           -9.2362     1.0973    -0.7028 H       
  56 H56           -8.5546     2.2605     0.4606 H       
  57 H57           -7.2565     4.5814    -2.1974 H       
  58 H58           -7.3679     4.3491    -0.4354 H       
  59 H59           -5.1214     3.7163    -1.2523 H       
  60 H60           -5.8521     2.5561    -2.3872 H       
  61 H61           -7.5588     2.5887    -3.4314 H       
  62 H62           -9.3880     2.8052    -4.7228 H       
  63 H63          -10.3552     1.8392    -3.5667 H       
  64 H64           -9.5779     4.8016    -3.3848 H       
  65 H65          -11.1908     4.0523    -3.1377 H       
  66 H66          -10.5433     3.0796    -1.0323 H       
  67 H67           -9.6234     4.6192    -0.9819 H       
@<TRIPOS>BOND
   1    1    2 ar
   2    1    6 ar
   3    2    3 ar
   4    2   15 1
   5    3    4 ar
   6    4    5 ar
   7    4    7 1
   8    5    6 ar
   9    5    9 1
  10    6   36 1
  11    7    8 1
  12    7   14 1
  13    8    9 ar
  14    8   10 ar
  15    9   13 ar
  16   10   11 ar
  17   10   37 1
  18   11   12 ar
  19   12   13 ar
  20   12   38 1
  21   13   39 1
  22   14   23 1
  23   14   26 1
  24   14   40 1
  25   15   16 1
  26   15   41 1
  27   16   17 ar
  28   16   21 ar
  29   17   18 ar
  30   18   19 ar
  31   18   42 1
  32   19   20 ar
  33   19   22 1
  34   20   21 ar
  35   20   43 1
  36   21   44 1
  37   22   27 1
  38   22   31 1
  39   23   24 1
  40   23   45 1
  41   23   46 1
  42   24   25 1
  43   24   47 1
  44   24   48 1
  45   25   26 1
  46   25   49 1
  47   25   50 1
  48   26   51 1
  49   26   52 1
  50   27   28 1
  51   27   53 1
  52   27   54 1
  53   28   29 1
  54   28   55 1
  55   28   56 1
  56   29   30 1
  57   29   32 1
  58   29   35 1
  59   30   31 1
  60   30   57 1
  61   30   58 1
  62   31   59 1
  63   31   60 1
  64   32   33 1
  65   32   61 1
  66   33   34 1
  67   33   62 1
  68   33   63 1
  69   34   35 1
  70   34   64 1
  71   34   65 1
  72   35   66 1
  73   35   67 1

#	End of record

