#	Name: ASD01148924
#	Creating user name:	WinNT
#	Creation time:	15. 06. 2019 19:03

#	Modifying user name:	WinNT
#	Modification time:	15. 06. 2019 19:03

#	Program:	/corina/corina34_cracker 3.40 0067  02.08.2006

@<TRIPOS>MOLECULE
ASD01148924
  44   46    0    0    0
SMALL
NO_CHARGES


@<TRIPOS>ATOM
   1 C1            -0.1466     1.1200     0.1826 C.ar    
   2 C2            -0.0383    -0.2480     0.3529 C.ar    
   3 C3             1.2001    -0.8568     0.2936 C.ar    
   4 C4             2.3368    -0.0938     0.0627 C.ar    
   5 C5             2.2248     1.2796    -0.1079 C.ar    
   6 C6             0.9837     1.8826    -0.0475 C.ar    
   7 S7            -1.7290     1.8920     0.2518 S.o2    
   8 O8            -1.6144     3.1077    -0.4748 O.2     
   9 O9            -2.6808     0.8850    -0.0632 O.2     
  10 N10           -1.9999     2.3142     1.8300 N.am    
  11 N11            3.5947    -0.7085     0.0024 N.pl3   
  12 C12            4.0223    -1.5544    -0.9801 C.2     
  13 C13            5.2842    -1.9408    -0.6928 C.2     
  14 C14            5.6598    -1.3170     0.5084 C.2     
  15 C15            4.6065    -0.5563     0.9187 C.2     
  16 C16            4.5596     0.2812     2.1360 C.ar    
  17 C17            3.3308     0.6529     2.6843 C.ar    
  18 C18            4.4718     1.8503     4.4161 C.ar    
  19 C19            5.7436     0.6991     2.7452 C.ar    
  20 C20            3.2941     1.4346     3.8202 C.ar    
  21 C21            5.6929     1.4807     3.8811 C.ar    
  22 C22            1.9685     1.8372     4.4133 C.3     
  23 C23            3.2213    -1.9851    -2.1818 C.3     
  24 C24           -1.1521     3.3199     2.4750 C.3     
  25 H25           -0.9228    -0.8410     0.5328 H       
  26 H26            1.2841    -1.9252     0.4270 H       
  27 H27            3.1073     1.8757    -0.2873 H       
  28 H28            0.8959     2.9508    -0.1804 H       
  29 H29           -2.7198     1.8956     2.3273 H       
  30 H30            5.8948    -2.6098    -1.2811 H       
  31 H31            6.6101    -1.4180     1.0116 H       
  32 H32            2.4109     0.3294     2.2200 H       
  33 H33            4.4376     2.4625     5.3052 H       
  34 H34            6.6975     0.4109     2.3287 H       
  35 H35            6.6084     1.8088     4.3507 H       
  36 H36            1.6525     1.0878     5.1390 H       
  37 H37            2.0705     2.8026     4.9090 H       
  38 H38            1.2238     1.9125     3.6210 H       
  39 H39            3.3935    -1.2882    -3.0020 H       
  40 H40            3.5297    -2.9858    -2.4844 H       
  41 H41            2.1612    -1.9928    -1.9280 H       
  42 H42           -0.1162     2.9810     2.4672 H       
  43 H43           -1.2302     4.2625     1.9332 H       
  44 H44           -1.4793     3.4646     3.5047 H       
@<TRIPOS>BOND
   1    1    2 ar
   2    1    6 ar
   3    1    7 1
   4    2    3 ar
   5    2   25 1
   6    3    4 ar
   7    3   26 1
   8    4    5 ar
   9    4   11 1
  10    5    6 ar
  11    5   27 1
  12    6   28 1
  13    7    8 2
  14    7    9 2
  15    7   10 am
  16   10   24 1
  17   10   29 1
  18   11   12 1
  19   11   15 1
  20   12   13 2
  21   12   23 1
  22   13   14 1
  23   13   30 1
  24   14   15 2
  25   14   31 1
  26   15   16 1
  27   16   17 ar
  28   16   19 ar
  29   17   20 ar
  30   17   32 1
  31   18   20 ar
  32   18   21 ar
  33   18   33 1
  34   19   21 ar
  35   19   34 1
  36   20   22 1
  37   21   35 1
  38   22   36 1
  39   22   37 1
  40   22   38 1
  41   23   39 1
  42   23   40 1
  43   23   41 1
  44   24   42 1
  45   24   43 1
  46   24   44 1

#	End of record

