#	Name: ASD02500137
#	Creating user name:	WinNT
#	Creation time:	15. 06. 2019 20:22

#	Modifying user name:	WinNT
#	Modification time:	15. 06. 2019 20:22

#	Program:	/corina/corina34_cracker 3.40 0067  02.08.2006

@<TRIPOS>MOLECULE
ASD02500137
  69   73    0    0    0
SMALL
NO_CHARGES


@<TRIPOS>ATOM
   1 N1             3.5020     3.5259    -0.3928 N.ar    
   2 C2             4.2520     3.0016     0.5457 C.ar    
   3 C3             5.2395     2.0622     0.2560 C.ar    
   4 C4             5.4450     1.6653    -1.0346 C.ar    
   5 C5             4.6374     2.2301    -2.0398 C.ar    
   6 C6             4.7907     1.8715    -3.3884 C.ar    
   7 C7             3.9901     2.4408    -4.3314 C.ar    
   8 C8             3.0202     3.3756    -3.9757 C.ar    
   9 C9             2.8445     3.7463    -2.6779 C.ar    
  10 C10            3.6516     3.1808    -1.6757 C.ar    
  11 S11            1.6106     4.9313    -2.2560 S.o2    
  12 O12            2.2464     5.8948    -1.4273 O.2     
  13 O13            0.9445     5.2652    -3.4660 O.2     
  14 N14            0.4951     4.1603    -1.3055 N.am    
  15 C15           -0.2415     3.0989    -1.8197 C.ar    
  16 C16           -0.3925     1.9327    -1.0746 C.ar    
  17 C17           -1.1209     0.8806    -1.5807 C.ar    
  18 C18           -1.7095     0.9838    -2.8445 C.ar    
  19 C19           -1.5561     2.1562    -3.5902 C.ar    
  20 C20           -0.8313     3.2069    -3.0762 C.ar    
  21 C21           -2.4906    -0.1424    -3.3902 C.2     
  22 O22           -3.5412     0.0684    -3.9650 O.2     
  23 N23           -2.0398    -1.4050    -3.2516 N.am    
  24 C24           -2.7537    -2.5270    -3.8772 C.3     
  25 C25           -1.7699    -3.3005    -4.7639 C.3     
  26 N26           -0.5553    -3.5798    -3.9849 N.am    
  27 C27            0.1585    -2.4577    -3.3593 C.3     
  28 C28           -0.8222    -1.6837    -2.4774 C.3     
  29 C29           -0.1045    -4.8423    -3.8464 C.2     
  30 C30            1.2105    -5.1015    -3.1575 C.3     
  31 C31            2.3168    -4.3073    -3.8549 C.3     
  32 O32           -0.7571    -5.7698    -4.2761 O.2     
  33 C33            1.1159    -4.6718    -1.7162 C.ar    
  34 C34            2.2528    -4.6313    -0.9309 C.ar    
  35 C35            2.1660    -4.2372     0.3912 C.ar    
  36 C36            0.9423    -3.8831     0.9279 C.ar    
  37 C37           -0.1945    -3.9227     0.1424 C.ar    
  38 C38           -0.1070    -4.3127    -1.1809 C.ar    
  39 C39            1.5355    -6.5951    -3.2241 C.3     
  40 H40            4.1007     3.3061     1.5708 H       
  41 H41            5.8420     1.6486     1.0511 H       
  42 H42            6.2062     0.9385    -1.2772 H       
  43 H43            5.5396     1.1485    -3.6765 H       
  44 H44            4.1087     2.1644    -5.3686 H       
  45 H45            2.3980     3.8135    -4.7422 H       
  46 H46            0.3555     4.4490    -0.3901 H       
  47 H47            0.0629     1.8534    -0.0985 H       
  48 H48           -1.2373    -0.0241    -1.0024 H       
  49 H49           -2.0094     2.2388    -4.5670 H       
  50 H50           -0.7164     4.1148    -3.6498 H       
  51 H51           -3.1464    -3.1874    -3.1041 H       
  52 H52           -3.5729    -2.1452    -4.4865 H       
  53 H53           -2.2242    -4.2388    -5.0822 H       
  54 H54           -1.5145    -2.7001    -5.6370 H       
  55 H55            0.9778    -2.8395    -2.7501 H       
  56 H56            0.5512    -1.7974    -4.1325 H       
  57 H57           -0.3661    -0.7451    -2.1624 H       
  58 H58           -1.0742    -2.2826    -1.6023 H       
  59 H59            2.1368    -3.2404    -3.7225 H       
  60 H60            3.2815    -4.5696    -3.4205 H       
  61 H61            2.3203    -4.5460    -4.9184 H       
  62 H62            3.2089    -4.9080    -1.3503 H       
  63 H63            3.0541    -4.2063     1.0049 H       
  64 H64            0.8743    -3.5759     1.9611 H       
  65 H65           -1.1506    -3.6464     0.5618 H       
  66 H66           -0.9945    -4.3401    -1.7956 H       
  67 H67            1.6866    -6.8881    -4.2631 H       
  68 H68            2.4430    -6.7952    -2.6545 H       
  69 H69            0.7084    -7.1660    -2.8023 H       
@<TRIPOS>BOND
   1    1    2 ar
   2    1   10 ar
   3    2    3 ar
   4    2   40 1
   5    3    4 ar
   6    3   41 1
   7    4    5 ar
   8    4   42 1
   9    5    6 ar
  10    5   10 ar
  11    6    7 ar
  12    6   43 1
  13    7    8 ar
  14    7   44 1
  15    8    9 ar
  16    8   45 1
  17    9   10 ar
  18    9   11 1
  19   11   12 2
  20   11   13 2
  21   11   14 am
  22   14   15 1
  23   14   46 1
  24   15   16 ar
  25   15   20 ar
  26   16   17 ar
  27   16   47 1
  28   17   18 ar
  29   17   48 1
  30   18   19 ar
  31   18   21 1
  32   19   20 ar
  33   19   49 1
  34   20   50 1
  35   21   22 2
  36   21   23 am
  37   23   24 1
  38   23   28 1
  39   24   25 1
  40   24   51 1
  41   24   52 1
  42   25   26 1
  43   25   53 1
  44   25   54 1
  45   26   27 1
  46   26   29 am
  47   27   28 1
  48   27   55 1
  49   27   56 1
  50   28   57 1
  51   28   58 1
  52   29   30 1
  53   29   32 2
  54   30   31 1
  55   30   33 1
  56   30   39 1
  57   31   59 1
  58   31   60 1
  59   31   61 1
  60   33   34 ar
  61   33   38 ar
  62   34   35 ar
  63   34   62 1
  64   35   36 ar
  65   35   63 1
  66   36   37 ar
  67   36   64 1
  68   37   38 ar
  69   37   65 1
  70   38   66 1
  71   39   67 1
  72   39   68 1
  73   39   69 1

#	End of record

