#	Name: ASD01915732
#	Creating user name:	WinNT
#	Creation time:	15. 06. 2019 20:06

#	Modifying user name:	WinNT
#	Modification time:	15. 06. 2019 20:06

#	Program:	/corina/corina34_cracker 3.40 0067  02.08.2006

@<TRIPOS>MOLECULE
ASD01915732
  41   44    0    0    0
SMALL
NO_CHARGES


@<TRIPOS>ATOM
   1 C1            -0.0043     1.4632     0.2179 C.2     
   2 N2             0.0616     0.1101    -0.0288 N.pl3   
   3 C3            -1.1509    -0.6741    -0.2926 C.3     
   4 C4            -2.3298    -0.0463     0.4491 C.3     
   5 N5            -2.4043     1.3988     0.2637 N.am    
   6 C6            -1.2917     2.1722     0.2680 C.2     
   7 C7             1.2784     1.9004     0.3942 C.2     
   8 C8             2.0746     0.7560     0.2525 C.2     
   9 N9             1.2814    -0.2613     0.0091 N.2     
  10 C10            3.5768     0.7025     0.3602 C.3     
  11 O11            4.0816     2.0113     0.6326 O.3     
  12 C12            5.4287     2.1388     0.7603 C.ar    
  13 O13           -1.3544     3.3861     0.3114 O.2     
  14 C14            6.2470     1.0250     0.6258 C.ar    
  15 C15            5.9847     3.3800     1.0188 C.ar    
  16 C16            7.3687     3.5063     1.1492 C.ar    
  17 C17            8.1827     2.3795     1.0180 C.ar    
  18 C18            7.6178     1.1481     0.7551 C.ar    
  19 C19           -3.6492     1.9979     0.0772 C.ar    
  20 N20           -3.7167     3.2589    -0.3197 N.ar    
  21 C21           -4.8073     1.2635     0.3044 C.ar    
  22 C22           -6.0371     1.8692     0.1153 C.ar    
  23 C23           -6.0658     3.1962    -0.2967 C.ar    
  24 C24           -4.8734     3.8643    -0.5087 C.ar    
  25 F25           -7.2453     3.8251    -0.4929 F       
  26 C26            7.9515     4.7868     1.4162 C.1     
  27 N27            8.4138     5.8026     1.6280 N.1     
  28 H28           -1.3554    -0.6787    -1.3632 H       
  29 H29           -1.0054    -1.6969     0.0549 H       
  30 H30           -3.2540    -0.4961     0.0863 H       
  31 H31           -2.2305    -0.2601     1.5133 H       
  32 H32            1.6070     2.9088     0.5981 H       
  33 H33            3.8594     0.0285     1.1688 H       
  34 H34            3.9956     0.3396    -0.5784 H       
  35 H35            5.8107     0.0587     0.4197 H       
  36 H36            5.3497     4.2478     1.1189 H       
  37 H37            9.2540     2.4723     1.1177 H       
  38 H38            8.2485     0.2773     0.6538 H       
  39 H39           -4.7481     0.2335     0.6238 H       
  40 H40           -6.9536     1.3232     0.2838 H       
  41 H41           -4.8895     4.8956    -0.8290 H       
@<TRIPOS>BOND
   1    1    2 1
   2    1    7 2
   3    1    6 1
   4    2    3 1
   5    2    9 1
   6    3    4 1
   7    3   28 1
   8    3   29 1
   9    4    5 1
  10    4   30 1
  11    4   31 1
  12    5    6 am
  13    5   19 1
  14    6   13 2
  15    7    8 1
  16    7   32 1
  17    8    9 2
  18    8   10 1
  19   10   11 1
  20   10   33 1
  21   10   34 1
  22   11   12 1
  23   12   14 ar
  24   12   15 ar
  25   14   18 ar
  26   14   35 1
  27   15   16 ar
  28   15   36 1
  29   16   17 ar
  30   16   26 1
  31   17   18 ar
  32   17   37 1
  33   18   38 1
  34   19   20 ar
  35   19   21 ar
  36   20   24 ar
  37   21   22 ar
  38   21   39 1
  39   22   23 ar
  40   22   40 1
  41   23   24 ar
  42   23   25 1
  43   24   41 1
  44   26   27 3

#	End of record

