#	Name: ASD01816175
#	Creating user name:	WinNT
#	Creation time:	15. 06. 2019 19:34

#	Modifying user name:	WinNT
#	Modification time:	15. 06. 2019 19:34

#	Program:	/corina/corina34_cracker 3.40 0067  02.08.2006

@<TRIPOS>MOLECULE
ASD01816175
  47   51    0    0    0
SMALL
NO_CHARGES


@<TRIPOS>ATOM
   1 C1             0.0447     1.3521     0.2647 C.ar    
   2 C2             0.0755    -0.0330     0.2549 C.ar    
   3 C3             1.2737    -0.7088     0.1517 C.ar    
   4 C4             2.4666    -0.0011     0.0564 C.ar    
   5 C5             2.4320     1.4034     0.0666 C.ar    
   6 C6             1.2174     2.0733     0.1707 C.ar    
   7 N7             3.6723    -0.6732    -0.0465 N.pl3   
   8 C8             4.8546    -0.0437    -0.1412 C.2     
   9 C9             4.9452     1.3261    -0.1421 C.2     
  10 C10            3.7093     2.1346    -0.0356 C.2     
  11 C11            6.0301     2.2987    -0.2275 C.2     
  12 N12            5.4488     3.5165    -0.1738 N.am    
  13 N13            4.0624     3.3877    -0.0591 N.2     
  14 C14            6.1377     4.7350    -0.2251 C.ar    
  15 C15            5.9635     5.6773     0.7829 C.ar    
  16 C16            7.0005     5.0028    -1.2795 C.ar    
  17 C17            7.6784     6.2053    -1.3275 C.ar    
  18 C18            7.4998     7.1430    -0.3269 C.ar    
  19 C19            6.6458     6.8792     0.7281 C.ar    
  20 F20            5.1291     5.4192     1.8135 F       
  21 O21            7.2227     2.0596    -0.3268 O.2     
  22 C22            3.6579    -2.1381    -0.0519 C.3     
  23 C23            3.4700    -2.6334    -1.4627 C.ar    
  24 C24            3.4802    -3.9902    -1.7259 C.ar    
  25 C25            3.3079    -4.4446    -3.0202 C.ar    
  26 C26            3.1251    -3.5421    -4.0509 C.ar    
  27 C27            3.1140    -2.1849    -3.7875 C.ar    
  28 C28            3.2819    -1.7308    -2.4930 C.ar    
  29 C29            3.6795    -4.9743    -0.6020 C.3     
  30 F30            3.5801    -6.2777    -1.1004 F       
  31 F31            4.9453    -4.7864    -0.0367 F       
  32 F32            2.6981    -4.7722     0.3743 F       
  33 H33           -0.9004     1.8691     0.3416 H       
  34 H34           -0.8474    -0.5889     0.3293 H       
  35 H35            1.2851    -1.7888     0.1451 H       
  36 H36            1.1924     3.1530     0.1787 H       
  37 H37            5.7580    -0.6304    -0.2184 H       
  38 H38            7.1416     4.2712    -2.0614 H       
  39 H39            8.3495     6.4134    -2.1477 H       
  40 H40            8.0320     8.0819    -0.3672 H       
  41 H41            6.5082     7.6138     1.5077 H       
  42 H42            4.6030    -2.5122     0.3417 H       
  43 H43            2.8379    -2.4956     0.5709 H       
  44 H44            3.3165    -5.5048    -3.2259 H       
  45 H45            2.9912    -3.8971    -5.0621 H       
  46 H46            2.9715    -1.4797    -4.5930 H       
  47 H47            3.2733    -0.6706    -2.2872 H       
@<TRIPOS>BOND
   1    1    2 ar
   2    1    6 ar
   3    1   33 1
   4    2    3 ar
   5    2   34 1
   6    3    4 ar
   7    3   35 1
   8    4    5 ar
   9    4    7 1
  10    5    6 ar
  11    5   10 1
  12    6   36 1
  13    7    8 1
  14    7   22 1
  15    8    9 2
  16    8   37 1
  17    9   10 1
  18    9   11 1
  19   10   13 2
  20   11   12 am
  21   11   21 2
  22   12   13 1
  23   12   14 1
  24   14   15 ar
  25   14   16 ar
  26   15   20 1
  27   15   19 ar
  28   16   17 ar
  29   16   38 1
  30   17   18 ar
  31   17   39 1
  32   18   19 ar
  33   18   40 1
  34   19   41 1
  35   22   23 1
  36   22   42 1
  37   22   43 1
  38   23   24 ar
  39   23   28 ar
  40   24   25 ar
  41   24   29 1
  42   25   26 ar
  43   25   44 1
  44   26   27 ar
  45   26   45 1
  46   27   28 ar
  47   27   46 1
  48   28   47 1
  49   29   30 1
  50   29   31 1
  51   29   32 1

#	End of record

