#	Name: ASD04880709
#	Creating user name:	WinNT
#	Creation time:	15. 06. 2019 20:53

#	Modifying user name:	WinNT
#	Modification time:	15. 06. 2019 20:53

#	Program:	/corina/corina34_cracker 3.40 0067  02.08.2006

@<TRIPOS>MOLECULE
ASD04880709
  84   90    0    0    0
SMALL
NO_CHARGES


@<TRIPOS>ATOM
   1 C1             0.0071     1.3658     0.0064 C.ar    
   2 C2            -1.1970     2.0425     0.0686 C.ar    
   3 C3            -1.2156     3.4247     0.1134 C.ar    
   4 C4            -0.0308     4.1336     0.0960 C.ar    
   5 C5             1.1810     3.4568     0.0335 C.ar    
   6 C6             1.1960     2.0687    -0.0113 C.ar    
   7 C7            -0.0520     5.6397     0.1443 C.3     
   8 N8             2.3813     4.1708     0.0153 N.3     
   9 C9             3.1847     3.8809     1.2112 C.3     
  10 C10            3.1436     3.8883    -1.2089 C.3     
  11 C11            4.4101     4.7475    -1.2277 C.3     
  12 N12            5.2134     4.4576    -0.0318 N.3     
  13 C13            4.4511     4.7401     1.1924 C.3     
  14 C14            6.4101     5.1694    -0.0499 C.ar    
  15 C15            6.6414     6.1612     0.8971 C.ar    
  16 C16            7.8256     6.8618     0.8859 C.ar    
  17 C17            8.5701     5.5822    -1.0297 C.ar    
  18 C18            7.3778     4.8811    -1.0163 C.ar    
  19 N19            7.1406     3.8827    -1.9704 N.am    
  20 C20            7.6297     4.0142    -3.2194 C.2     
  21 C21            7.4888     2.9104    -4.1860 C.2     
  22 O22            8.1872     5.0438    -3.5488 O.2     
  23 C23            6.9653     1.0012    -5.0470 C.2     
  24 O24            7.6010     1.7079    -5.9921 O.3     
  25 C25            7.9359     2.8994    -5.4715 C.2     
  26 N26            6.8926     1.7085    -3.9594 N.2     
  27 C27            6.4205    -0.3934    -5.2188 C.3     
  28 C28            5.3589    -0.6089    -6.2992 C.3     
  29 C29            6.7794    -1.1384    -6.5060 C.3     
  30 C30            8.8021     6.5695    -0.0729 C.ar    
  31 C31            8.0789     7.9539     1.8920 C.3     
  32 C32            9.5653     8.0171     2.2345 C.3     
  33 N33           10.3777     8.0734     1.0210 N.am    
  34 C34           10.0675     7.3279    -0.0564 C.2     
  35 O35           10.8262     7.2759    -1.0052 O.2     
  36 C36           11.5472     8.9546     0.9761 C.3     
  37 C37           12.7801     8.1910     1.4636 C.3     
  38 C38           14.0015     9.1113     1.4167 C.3     
  39 N39           15.1820     8.3802     1.8835 N.am    
  40 C40           16.0760     7.6082     1.0124 C.3     
  41 C41           16.8792     6.6878     1.9580 C.3     
  42 C42           16.8312     7.4800     3.2850 C.3     
  43 C43           15.5889     8.3349     3.1639 C.2     
  44 O44           15.0386     8.8956     4.0878 O.2     
  45 H45            0.0183     0.2863    -0.0239 H       
  46 H46           -2.1252     1.4905     0.0820 H       
  47 H47           -2.1579     3.9502     0.1616 H       
  48 H48            2.1363     1.5396    -0.0599 H       
  49 H49           -0.0227     5.9704     1.1825 H       
  50 H50            0.8150     6.0325    -0.3867 H       
  51 H51           -0.9637     6.0055    -0.3279 H       
  52 H52            2.6032     4.1099     2.1043 H       
  53 H53            3.4607     2.8264     1.2171 H       
  54 H54            3.4191     2.8339    -1.2305 H       
  55 H55            2.5322     4.1227    -2.0802 H       
  56 H56            4.9916     4.5185    -2.1207 H       
  57 H57            4.1341     5.8020    -1.2336 H       
  58 H58            4.1756     5.7945     1.2140 H       
  59 H59            5.0626     4.5057     2.0638 H       
  60 H60            5.8909     6.3819     1.6417 H       
  61 H61            9.3178     5.3662    -1.7784 H       
  62 H62            6.6244     3.0968    -1.7319 H       
  63 H63            8.4602     3.6971    -5.9766 H       
  64 H64            6.3344    -0.9804    -4.3044 H       
  65 H65            4.5746    -1.3381    -6.0959 H       
  66 H66            5.0545     0.2579    -6.8858 H       
  67 H67            7.4095    -0.6199    -7.2286 H       
  68 H68            6.9296    -2.2159    -6.4387 H       
  69 H69            7.7632     8.9101     1.4747 H       
  70 H70            7.5076     7.7505     2.7977 H       
  71 H71            9.7570     8.9059     2.8357 H       
  72 H72            9.8389     7.1316     2.8082 H       
  73 H73           11.7095     9.2910    -0.0479 H       
  74 H74           11.3766     9.8179     1.6193 H       
  75 H75           12.6177     7.8547     2.4876 H       
  76 H76           12.9507     7.3278     0.8203 H       
  77 H77           14.1638     9.4477     0.3927 H       
  78 H78           13.8309     9.9746     2.0600 H       
  79 H79           15.4949     7.0117     0.3091 H       
  80 H80           16.7489     8.2766     0.4752 H       
  81 H81           16.3927     5.7182     2.0647 H       
  82 H82           17.9056     6.5713     1.6101 H       
  83 H83           16.7483     6.7997     4.1327 H       
  84 H84           17.7149     8.1101     3.3854 H       
@<TRIPOS>BOND
   1    1    2 ar
   2    1    6 ar
   3    1   45 1
   4    2    3 ar
   5    2   46 1
   6    3    4 ar
   7    3   47 1
   8    4    5 ar
   9    4    7 1
  10    5    6 ar
  11    5    8 1
  12    6   48 1
  13    7   49 1
  14    7   50 1
  15    7   51 1
  16    8   10 1
  17    8    9 1
  18    9   13 1
  19    9   52 1
  20    9   53 1
  21   10   11 1
  22   10   54 1
  23   10   55 1
  24   11   12 1
  25   11   56 1
  26   11   57 1
  27   12   13 1
  28   12   14 1
  29   13   58 1
  30   13   59 1
  31   14   15 ar
  32   14   18 ar
  33   15   16 ar
  34   15   60 1
  35   16   31 1
  36   16   30 ar
  37   17   18 ar
  38   17   30 ar
  39   17   61 1
  40   18   19 1
  41   19   20 am
  42   19   62 1
  43   20   21 1
  44   20   22 2
  45   21   26 1
  46   21   25 2
  47   23   24 1
  48   23   26 2
  49   23   27 1
  50   24   25 1
  51   25   63 1
  52   27   28 1
  53   27   29 1
  54   27   64 1
  55   28   29 1
  56   28   65 1
  57   28   66 1
  58   29   67 1
  59   29   68 1
  60   30   34 1
  61   31   32 1
  62   31   69 1
  63   31   70 1
  64   32   33 1
  65   32   71 1
  66   32   72 1
  67   33   34 am
  68   33   36 1
  69   34   35 2
  70   36   37 1
  71   36   73 1
  72   36   74 1
  73   37   38 1
  74   37   75 1
  75   37   76 1
  76   38   39 1
  77   38   77 1
  78   38   78 1
  79   39   40 1
  80   39   43 am
  81   40   41 1
  82   40   79 1
  83   40   80 1
  84   41   42 1
  85   41   81 1
  86   41   82 1
  87   42   43 1
  88   42   83 1
  89   42   84 1
  90   43   44 2

#	End of record

