#	Name: ASD01240004
#	Creating user name:	WinNT
#	Creation time:	15. 06. 2019 19:15

#	Modifying user name:	WinNT
#	Modification time:	15. 06. 2019 19:15

#	Program:	/corina/corina34_cracker 3.40 0067  02.08.2006

@<TRIPOS>MOLECULE
ASD01240004
  32   34    0    0    0
SMALL
NO_CHARGES


@<TRIPOS>ATOM
   1 O1            -0.0173     1.4248     0.0099 O.3     
   2 C2             0.0021    -0.0041     0.0020 C.3     
   3 C3            -1.4333    -0.5336     0.0129 C.3     
   4 C4            -1.4374    -2.0739     0.1309 C.3     
   5 O5            -1.6648    -2.4718     1.4844 O.3     
   6 C6            -2.6134    -2.5163    -0.7684 C.3     
   7 O7            -3.6030    -3.2008     0.0023 O.3     
   8 C8            -3.1807    -1.1909    -1.3233 C.3     
   9 O9            -2.0803    -0.2585    -1.2487 O.3     
  10 N10           -3.6105    -1.3624    -2.7133 N.pl3   
  11 C11           -2.8743    -1.0816    -3.8257 C.2     
  12 N12           -3.5642    -1.3526    -4.8954 N.2     
  13 C13           -4.7833    -1.8232    -4.5384 C.ar    
  14 C14           -5.9170    -2.2651    -5.2419 C.ar    
  15 N15           -5.9318    -2.2764    -6.6256 N.pl3   
  16 N16           -6.9743    -2.6721    -4.5473 N.ar    
  17 C17           -6.9690    -2.6651    -3.2266 C.ar    
  18 N18           -5.9308    -2.2598    -2.5264 N.ar    
  19 C19           -4.8255    -1.8407    -3.1342 C.ar    
  20 H20            0.8606     1.8301     0.0037 H       
  21 H21            0.5123    -0.3556    -0.8948 H       
  22 H22            0.5293    -0.3651     0.8851 H       
  23 H23           -1.9950    -0.0887     0.8343 H       
  24 H24           -0.4975    -2.4875    -0.2350 H       
  25 H25           -0.9866    -2.1679     2.1030 H       
  26 H26           -2.2562    -3.1506    -1.5796 H       
  27 H27           -3.2828    -4.0099     0.4241 H       
  28 H28           -4.0120    -0.8468    -0.7079 H       
  29 H29           -1.8672    -0.6915    -3.8202 H       
  30 H30           -5.1536    -1.9771    -7.1214 H       
  31 H31           -6.7202    -2.5837    -7.0997 H       
  32 H32           -7.8497    -3.0044    -2.7016 H       
@<TRIPOS>BOND
   1    1    2 1
   2    1   20 1
   3    2    3 1
   4    2   21 1
   5    2   22 1
   6    3    4 1
   7    3    9 1
   8    3   23 1
   9    4    5 1
  10    4    6 1
  11    4   24 1
  12    5   25 1
  13    6    7 1
  14    6    8 1
  15    6   26 1
  16    7   27 1
  17    8    9 1
  18    8   10 1
  19    8   28 1
  20   10   11 1
  21   10   19 1
  22   11   12 2
  23   11   29 1
  24   12   13 1
  25   13   14 ar
  26   13   19 ar
  27   14   15 1
  28   14   16 ar
  29   15   30 1
  30   15   31 1
  31   16   17 ar
  32   17   18 ar
  33   17   32 1
  34   18   19 ar

#	End of record

