#	Name: ASD01880512
#	Creating user name:	WinNT
#	Creation time:	15. 06. 2019 19:40

#	Modifying user name:	WinNT
#	Modification time:	15. 06. 2019 19:40

#	Program:	/corina/corina34_cracker 3.40 0067  02.08.2006

@<TRIPOS>MOLECULE
ASD01880512
  51   54    0    0    0
SMALL
NO_CHARGES


@<TRIPOS>ATOM
   1 N1            -0.3160     1.5128    -0.3900 N.ar    
   2 C2            -0.5293     0.2200    -0.2377 C.ar    
   3 N3             0.4523    -0.6174     0.0380 N.ar    
   4 C4             1.6953    -0.1838     0.1715 C.ar    
   5 C5             1.9582     1.1685     0.0180 C.ar    
   6 C6             0.9016     2.0174    -0.2707 C.ar    
   7 C7             3.3598     1.7030     0.1625 C.3     
   8 O8             4.2693     0.6144     0.3351 O.3     
   9 C9             5.5821     0.9256     0.4809 C.ar    
  10 C10            6.5215    -0.0864     0.6530 C.ar    
  11 C11            7.8492     0.2297     0.8000 C.ar    
  12 C12            8.2655     1.5650     0.7778 C.ar    
  13 C13            7.3180     2.5776     0.6042 C.ar    
  14 C14            5.9879     2.2546     0.4524 C.ar    
  15 C15            9.0926    -0.6006     0.9997 C.3     
  16 N16           10.2091     0.3477     1.0856 N.am    
  17 C17            9.7274     1.5959     0.9571 C.2     
  18 O18           10.4024     2.6068     0.9845 O.2     
  19 Cl19          -2.1440    -0.3956    -0.4036 Cl      
  20 C20            1.1361     3.4956    -0.4469 C.3     
  21 C21            0.8801     4.2039     0.8585 C.ar    
  22 C22            1.9298     4.4710     1.7173 C.ar    
  23 C23            1.6950     5.1207     2.9147 C.ar    
  24 C24            0.4106     5.5036     3.2530 C.ar    
  25 C25           -0.6390     5.2373     2.3937 C.ar    
  26 C26           -0.4036     4.5914     1.1944 C.ar    
  27 C27           13.7548    -0.5816     0.1211 C.3     
  28 C28           12.2844    -0.2105    -0.0818 C.3     
  29 C29           11.6170    -0.0076     1.2799 C.3     
  30 H30            2.4943    -0.8744     0.3975 H       
  31 H31            3.6292     2.2631    -0.7329 H       
  32 H32            3.4104     2.3599     1.0309 H       
  33 H33            6.2063    -1.1193     0.6714 H       
  34 H34            7.6289     3.6118     0.5861 H       
  35 H35            5.2563     3.0375     0.3180 H       
  36 H36            9.0160    -1.1738     1.9236 H       
  37 H37            9.2352    -1.2715     0.1526 H       
  38 H38            2.1673     3.6655    -0.7563 H       
  39 H39            0.4596     3.8825    -1.2089 H       
  40 H40            2.9333     4.1719     1.4530 H       
  41 H41            2.5151     5.3288     3.5860 H       
  42 H42            0.2270     6.0105     4.1888 H       
  43 H43           -1.6426     5.5361     2.6582 H       
  44 H44           -1.2236     4.3834     0.5231 H       
  45 H45           14.2612     0.2206     0.6580 H       
  46 H46           13.8205    -1.5035     0.6989 H       
  47 H47           14.2303    -0.7261    -0.8490 H       
  48 H48           12.2187     0.7114    -0.6597 H       
  49 H49           11.7780    -1.0127    -0.6187 H       
  50 H50           12.1234     0.7946     1.8167 H       
  51 H51           11.6827    -0.9295     1.8577 H       
@<TRIPOS>BOND
   1    1    2 ar
   2    1    6 ar
   3    2    3 ar
   4    2   19 1
   5    3    4 ar
   6    4    5 ar
   7    4   30 1
   8    5    6 ar
   9    5    7 1
  10    6   20 1
  11    7    8 1
  12    7   31 1
  13    7   32 1
  14    8    9 1
  15    9   10 ar
  16    9   14 ar
  17   10   11 ar
  18   10   33 1
  19   11   12 ar
  20   11   15 1
  21   12   13 ar
  22   12   17 1
  23   13   14 ar
  24   13   34 1
  25   14   35 1
  26   15   16 1
  27   15   36 1
  28   15   37 1
  29   16   17 am
  30   16   29 1
  31   17   18 2
  32   20   21 1
  33   20   38 1
  34   20   39 1
  35   21   22 ar
  36   21   26 ar
  37   22   23 ar
  38   22   40 1
  39   23   24 ar
  40   23   41 1
  41   24   25 ar
  42   24   42 1
  43   25   26 ar
  44   25   43 1
  45   26   44 1
  46   27   28 1
  47   27   45 1
  48   27   46 1
  49   27   47 1
  50   28   29 1
  51   28   48 1
  52   28   49 1
  53   29   50 1
  54   29   51 1

#	End of record

