#	Name: ASD01885399
#	Creating user name:	WinNT
#	Creation time:	15. 06. 2019 19:49

#	Modifying user name:	WinNT
#	Modification time:	15. 06. 2019 19:49

#	Program:	/corina/corina34_cracker 3.40 0067  02.08.2006

@<TRIPOS>MOLECULE
ASD01885399
  40   43    0    0    0
SMALL
NO_CHARGES


@<TRIPOS>ATOM
   1 C1            -0.0701     1.7544     0.1424 C.ar    
   2 C2            -0.1742     0.4493     0.6291 C.ar    
   3 N3            -1.3535    -0.1706     0.8766 N.2     
   4 C4            -2.4044    -0.1296     0.1411 C.2     
   5 C5            -2.4543     0.6837    -1.1257 C.3     
   6 C6            -2.2781     2.1357    -0.7591 C.2     
   7 N7            -1.1650     2.5543    -0.1580 N.am    
   8 C8             1.1904     2.3064    -0.0677 C.ar    
   9 C9             2.3405     1.5652     0.1987 C.ar    
  10 C10            2.2270     0.2563     0.6810 C.ar    
  11 C11            0.9974    -0.2873     0.8907 C.ar    
  12 C12           -3.5938    -0.8992     0.5465 C.ar    
  13 C13           -3.5947    -1.6721     1.7185 C.ar    
  14 C14           -4.7497    -2.3668     2.0322 C.ar    
  15 N15           -5.8021    -2.2895     1.2398 N.ar    
  16 N16           -5.8096    -1.5858     0.1674 N.ar    
  17 C17           -4.7660    -0.8808    -0.2211 C.ar    
  18 O18           -3.1579     2.9304    -1.0152 O.2     
  19 C19            3.6724     2.1582    -0.0273 C.2     
  20 C20            4.8500     1.6240     0.6878 C.ar    
  21 O21            3.8011     3.0864    -0.8020 O.2     
  22 C22            6.1329     1.8200     0.1714 C.ar    
  23 C23            7.2276     1.3191     0.8445 C.ar    
  24 C24            7.0571     0.6232     2.0285 C.ar    
  25 C25            5.7889     0.4253     2.5459 C.ar    
  26 C26            4.6857     0.9258     1.8863 C.ar    
  27 H27           -1.6514     0.3731    -1.7942 H       
  28 H28           -3.4175     0.5423    -1.6159 H       
  29 H29           -1.1160     3.4903     0.0920 H       
  30 H30            1.2779     3.3164    -0.4401 H       
  31 H31            3.1154    -0.3224     0.8866 H       
  32 H32            0.9187    -1.2980     1.2630 H       
  33 H33           -2.7229    -1.7232     2.3540 H       
  34 H34           -4.7898    -2.9725     2.9255 H       
  35 H35           -4.8106    -0.3004    -1.1307 H       
  36 H36            6.2673     2.3622    -0.7528 H       
  37 H37            8.2201     1.4699     0.4463 H       
  38 H38            7.9177     0.2325     2.5510 H       
  39 H39            5.6630    -0.1189     3.4702 H       
  40 H40            3.6966     0.7707     2.2912 H       
@<TRIPOS>BOND
   1    1    2 ar
   2    1    8 ar
   3    1    7 1
   4    2    3 1
   5    2   11 ar
   6    3    4 2
   7    4    5 1
   8    4   12 1
   9    5    6 1
  10    5   27 1
  11    5   28 1
  12    6    7 am
  13    6   18 2
  14    7   29 1
  15    8    9 ar
  16    8   30 1
  17    9   10 ar
  18    9   19 1
  19   10   11 ar
  20   10   31 1
  21   11   32 1
  22   12   13 ar
  23   12   17 ar
  24   13   14 ar
  25   13   33 1
  26   14   15 ar
  27   14   34 1
  28   15   16 ar
  29   16   17 ar
  30   17   35 1
  31   19   20 1
  32   19   21 2
  33   20   22 ar
  34   20   26 ar
  35   22   23 ar
  36   22   36 1
  37   23   24 ar
  38   23   37 1
  39   24   25 ar
  40   24   38 1
  41   25   26 ar
  42   25   39 1
  43   26   40 1

#	End of record

