#	Name: ASD01884924
#	Creating user name:	WinNT
#	Creation time:	15. 06. 2019 19:49

#	Modifying user name:	WinNT
#	Modification time:	15. 06. 2019 19:49

#	Program:	/corina/corina34_cracker 3.40 0067  02.08.2006

@<TRIPOS>MOLECULE
ASD01884924
  49   53    0    0    0
SMALL
NO_CHARGES


@<TRIPOS>ATOM
   1 C1            -0.0143     1.3766     0.0041 C.ar    
   2 C2             0.0304     0.0157    -0.2162 C.ar    
   3 C3            -1.1180    -0.6603    -0.6293 C.ar    
   4 C4            -2.3075     0.0428    -0.8181 C.ar    
   5 C5            -2.3456     1.4034    -0.5961 C.ar    
   6 C6            -1.2032     2.0728    -0.1797 C.ar    
   7 C7            -1.0738    -2.1219    -0.8673 C.2     
   8 C8            -1.8091    -2.9810    -0.0723 C.2     
   9 C9            -0.2825    -2.6521    -1.9154 C.2     
  10 C10           -0.2442    -3.9804    -2.1303 C.2     
  11 N11           -0.9633    -4.8367    -1.3471 N.pl3   
  12 C12           -1.7471    -4.3623    -0.3230 C.2     
  13 C13           -1.1126    -6.1902    -1.3327 C.2     
  14 N14           -1.9305    -6.4861    -0.3558 N.2     
  15 N15           -2.3123    -5.4155     0.2471 N.2     
  16 C16           -0.4555    -7.1688    -2.2716 C.3     
  17 C17           -0.6005    -8.6585    -1.9542 C.3     
  18 O18           -1.2443     3.4134     0.0380 O.3     
  19 C19           -2.5205     4.0482    -0.0634 C.3     
  20 C20           -2.5234     5.3299     0.7754 C.3     
  21 C21           -3.8662     6.0435     0.5981 C.3     
  22 O22           -4.0772     6.3213    -0.7877 O.3     
  23 C23           -4.1312     5.1570    -1.6145 C.3     
  24 C24           -2.7991     4.4078    -1.5261 C.3     
  25 C25           -1.3687    -8.0481    -3.1282 C.3     
  26 Cl26           1.4137     2.2194     0.5181 Cl      
  27 C27           -2.6639    -2.4444     1.0467 C.3     
  28 F28           -3.9771    -2.2806     0.5930 F       
  29 F29           -2.6494    -3.3447     2.1175 F       
  30 F30           -2.1588    -1.2099     1.4686 F       
  31 H31            0.9533    -0.5258    -0.0694 H       
  32 H32           -3.1980    -0.4777    -1.1381 H       
  33 H33           -3.2666     1.9481    -0.7423 H       
  34 H34            0.2919    -1.9884    -2.5446 H       
  35 H35            0.3628    -4.3736    -2.9325 H       
  36 H36            0.4838    -6.8373    -2.7143 H       
  37 H37            0.2435    -9.3074    -2.1880 H       
  38 H38           -1.1712    -8.9307    -1.0664 H       
  39 H39           -3.2940     3.3722     0.3010 H       
  40 H40           -2.3808     5.0779     1.8262 H       
  41 H41           -1.7168     5.9839     0.4440 H       
  42 H42           -4.6687     5.4049     0.9671 H       
  43 H43           -3.8580     6.9781     1.1590 H       
  44 H44           -4.9373     4.5068    -1.2744 H       
  45 H45           -4.3140     5.4529    -2.6475 H       
  46 H46           -1.9981     5.0431    -1.9040 H       
  47 H47           -2.8537     3.4962    -2.1212 H       
  48 H48           -2.4448    -7.9187    -3.0126 H       
  49 H49           -1.0301    -8.2953    -4.1343 H       
@<TRIPOS>BOND
   1    1    2 ar
   2    1   26 1
   3    1    6 ar
   4    2    3 ar
   5    2   31 1
   6    3    4 ar
   7    3    7 1
   8    4    5 ar
   9    4   32 1
  10    5    6 ar
  11    5   33 1
  12    6   18 1
  13    7    8 2
  14    7    9 1
  15    8   27 1
  16    8   12 1
  17    9   10 2
  18    9   34 1
  19   10   11 1
  20   10   35 1
  21   11   12 1
  22   11   13 1
  23   12   15 2
  24   13   14 2
  25   13   16 1
  26   14   15 1
  27   16   25 1
  28   16   17 1
  29   16   36 1
  30   17   25 1
  31   17   37 1
  32   17   38 1
  33   18   19 1
  34   19   20 1
  35   19   24 1
  36   19   39 1
  37   20   21 1
  38   20   40 1
  39   20   41 1
  40   21   22 1
  41   21   42 1
  42   21   43 1
  43   22   23 1
  44   23   24 1
  45   23   44 1
  46   23   45 1
  47   24   46 1
  48   24   47 1
  49   25   48 1
  50   25   49 1
  51   27   28 1
  52   27   29 1
  53   27   30 1

#	End of record

