#	Name: ASD02560207
#	Creating user name:	WinNT
#	Creation time:	15. 06. 2019 20:24

#	Modifying user name:	WinNT
#	Modification time:	15. 06. 2019 20:24

#	Program:	/corina/corina34_cracker 3.40 0067  02.08.2006

@<TRIPOS>MOLECULE
ASD02560207
  73   77    0    0    0
SMALL
NO_CHARGES


@<TRIPOS>ATOM
   1 Br1            3.5662     0.5975    -3.3377 Br      
   2 N2             1.7290     0.1074    -1.2359 N.2     
   3 N3             1.2687    -1.0385    -1.2264 N.2     
   4 C4             3.1777     0.0960    -1.4768 C.3     
   5 N5             3.5927    -1.3067    -1.2220 N.3     
   6 C6             2.3212    -2.0359    -1.4591 C.3     
   7 S7             2.1557    -3.4135    -0.2905 S.3     
   8 C8             2.1811    -2.5851     1.3231 C.3     
   9 C9             2.0504    -3.6128     2.4175 C.2     
  10 O10            1.9501    -4.7884     2.1366 O.2     
  11 N11            2.0451    -3.2256     3.7084 N.am    
  12 C12            4.5747    -1.7087    -2.1247 C.ar    
  13 C13            1.8356    -4.1655     4.7176 C.ar    
  14 C14            1.2331    -3.7795     5.9122 C.ar    
  15 C15            1.0250    -4.7056     6.9105 C.ar    
  16 C16            1.4193    -6.0333     6.7228 C.ar    
  17 C17            2.0234    -6.4165     5.5227 C.ar    
  18 C18            2.2236    -5.4872     4.5263 C.ar    
  19 Cl19           0.7445    -2.1299     6.1439 Cl      
  20 C20            1.1984    -7.0284     7.7903 C.2     
  21 C21            5.8054    -1.0210    -2.1912 C.ar    
  22 C22            4.3553    -2.7855    -2.9574 C.ar    
  23 C23            5.3296    -3.1950    -3.8625 C.ar    
  24 C24            6.5237    -2.5466    -3.9514 C.ar    
  25 C25            6.7893    -1.4476    -3.1170 C.ar    
  26 C26            6.0724     0.0768    -1.3584 C.ar    
  27 C27            8.0128    -0.7590    -3.1872 C.ar    
  28 C28            8.2369     0.3018    -2.3645 C.ar    
  29 C29            7.2707     0.7169    -1.4502 C.ar    
  30 C30            7.5621    -3.0109    -4.9400 C.3     
  31 N31            1.5792    -8.3083     7.6078 N.am    
  32 O32            0.6729    -6.6934     8.8343 O.2     
  33 C33            8.0830    -4.4424    -4.7974 C.3     
  34 C34            7.1459    -4.0807    -5.9515 C.3     
  35 C35            1.3599    -9.2959     8.6674 C.3     
  36 C36            2.5054    -9.2461     9.6453 C.2     
  37 C37            1.2753   -10.6941     8.0518 C.3     
  38 O38            3.4119    -8.4657     9.4748 O.2     
  39 O39            2.5186   -10.0688    10.7059 O.3     
  40 C40            0.0281   -10.7887     7.1706 C.3     
  41 C41            0.0383   -12.1182     6.4135 C.3     
  42 C42           -1.2231   -10.7109     8.0478 C.3     
  43 H43            3.6825     0.7724    -0.7872 H       
  44 H44            2.2785    -2.4005    -2.4854 H       
  45 H45            3.1217    -2.0469     1.4404 H       
  46 H46            1.3502    -1.8821     1.3837 H       
  47 H47            2.1870    -2.2934     3.9357 H       
  48 H48            0.5580    -4.4060     7.8371 H       
  49 H49            2.3292    -7.4417     5.3748 H       
  50 H50            2.6903    -5.7833     3.5985 H       
  51 H51            3.4168    -3.3174    -2.9064 H       
  52 H52            5.1357    -4.0412    -4.5050 H       
  53 H53            5.3309     0.4124    -0.6485 H       
  54 H54            8.7713    -1.0703    -3.8902 H       
  55 H55            9.1777     0.8291    -2.4205 H       
  56 H56            7.4731     1.5619    -0.8088 H       
  57 H57            8.2672    -2.2495    -5.2735 H       
  58 H58            1.9984    -8.5755     6.7749 H       
  59 H59            9.1308    -4.6229    -5.0375 H       
  60 H60            7.6747    -5.0483    -3.9885 H       
  61 H61            6.1211    -4.4487    -5.9019 H       
  62 H62            7.5772    -4.0233    -6.9509 H       
  63 H63            0.4286    -9.0707     9.1869 H       
  64 H64            2.1627   -10.8788     7.4464 H       
  65 H65            1.2162   -11.4379     8.8463 H       
  66 H66            3.2743   -10.0001    11.3054 H       
  67 H67            0.0237    -9.9644     6.4575 H       
  68 H68           -0.8907   -12.2244     5.8532 H       
  69 H69            0.8824   -12.1373     5.7242 H       
  70 H70            0.1303   -12.9400     7.1235 H       
  71 H71           -1.2304    -9.7638     8.5872 H       
  72 H72           -2.1117   -10.7784     7.4200 H       
  73 H73           -1.2187   -11.5352     8.7610 H       
@<TRIPOS>BOND
   1    1    4 1
   2    2    3 2
   3    2    4 1
   4    3    6 1
   5    4    5 1
   6    4   43 1
   7    5    6 1
   8    5   12 1
   9    6    7 1
  10    6   44 1
  11    7    8 1
  12    8    9 1
  13    8   45 1
  14    8   46 1
  15    9   10 2
  16    9   11 am
  17   11   13 1
  18   11   47 1
  19   12   21 ar
  20   12   22 ar
  21   13   14 ar
  22   13   18 ar
  23   14   15 ar
  24   14   19 1
  25   15   16 ar
  26   15   48 1
  27   16   17 ar
  28   16   20 1
  29   17   18 ar
  30   17   49 1
  31   18   50 1
  32   20   31 am
  33   20   32 2
  34   21   25 ar
  35   21   26 ar
  36   22   23 ar
  37   22   51 1
  38   23   24 ar
  39   23   52 1
  40   24   25 ar
  41   24   30 1
  42   25   27 ar
  43   26   29 ar
  44   26   53 1
  45   27   28 ar
  46   27   54 1
  47   28   29 ar
  48   28   55 1
  49   29   56 1
  50   30   33 1
  51   30   34 1
  52   30   57 1
  53   31   35 1
  54   31   58 1
  55   33   34 1
  56   33   59 1
  57   33   60 1
  58   34   61 1
  59   34   62 1
  60   35   36 1
  61   35   37 1
  62   35   63 1
  63   36   38 2
  64   36   39 1
  65   37   40 1
  66   37   64 1
  67   37   65 1
  68   39   66 1
  69   40   41 1
  70   40   42 1
  71   40   67 1
  72   41   68 1
  73   41   69 1
  74   41   70 1
  75   42   71 1
  76   42   72 1
  77   42   73 1

#	End of record

