#	Name: ASD03331217
#	Creating user name:	WinNT
#	Creation time:	15. 06. 2019 20:38

#	Modifying user name:	WinNT
#	Modification time:	15. 06. 2019 20:38

#	Program:	/corina/corina34_cracker 3.40 0067  02.08.2006

@<TRIPOS>MOLECULE
ASD03331217
  43   45    0    0    0
SMALL
NO_CHARGES


@<TRIPOS>ATOM
   1 N1            -0.0473     1.4519     0.2771 N.am    
   2 C2            -0.0347     0.0074     0.5537 C.3     
   3 C3             0.7366    -0.6963    -0.5679 C.3     
   4 N4             2.0623    -0.0792    -0.7081 N.3     
   5 C5             1.9544     1.3299    -1.1092 C.3     
   6 C6             1.2330     2.1166    -0.0097 C.3     
   7 C7            -1.2020     2.1469     0.2809 C.2     
   8 O8            -2.2608     1.5660     0.4219 O.2     
   9 N9            -1.1831     3.4859     0.1284 N.am    
  10 C10           -2.3856     4.1966     0.0329 C.ar    
  11 C11           -2.4021     5.5692     0.2481 C.ar    
  12 C12           -3.5911     6.2676     0.1525 C.ar    
  13 C13           -4.7625     5.6014    -0.1568 C.ar    
  14 C14           -4.7488     4.2353    -0.3714 C.ar    
  15 C15           -3.5632     3.5323    -0.2826 C.ar    
  16 C16            2.8967    -0.8331    -1.6533 C.3     
  17 C17            4.1451    -0.0465    -1.9594 C.ar    
  18 C18            5.2762    -0.2162    -1.1834 C.ar    
  19 C19            6.4219     0.5053    -1.4631 C.ar    
  20 C20            6.4366     1.3969    -2.5200 C.ar    
  21 C21            5.3039     1.5666    -3.2975 C.ar    
  22 C22            4.1603     0.8404    -3.0198 C.ar    
  23 Br23           5.3225     2.7860    -4.7427 Br      
  24 Br24           8.0032     2.3844    -2.9026 Br      
  25 Cl25          -0.9315     6.4058     0.6371 Cl      
  26 H26            0.4570    -0.1783     1.5086 H       
  27 H27           -1.0575    -0.3681     0.5862 H       
  28 H28            0.8510    -1.7524    -0.3236 H       
  29 H29            0.1881    -0.5966    -1.5046 H       
  30 H30            2.9520     1.7433    -1.2573 H       
  31 H31            1.3889     1.4014    -2.0383 H       
  32 H32            1.0484     3.1357    -0.3497 H       
  33 H33            1.8466     2.1337     0.8911 H       
  34 H34           -0.3364     3.9571     0.0848 H       
  35 H35           -3.6052     7.3344     0.3199 H       
  36 H36           -5.6904     6.1491    -0.2306 H       
  37 H37           -5.6657     3.7181    -0.6125 H       
  38 H38           -3.5529     2.4662    -0.4549 H       
  39 H39            3.1702    -1.7915    -1.2120 H       
  40 H40            2.3393    -1.0031    -2.5745 H       
  41 H41            5.2649    -0.9125    -0.3579 H       
  42 H42            7.3052     0.3728    -0.8560 H       
  43 H43            3.2763     0.9724    -3.6261 H       
@<TRIPOS>BOND
   1    1    2 1
   2    1    6 1
   3    1    7 am
   4    2    3 1
   5    2   26 1
   6    2   27 1
   7    3    4 1
   8    3   28 1
   9    3   29 1
  10    4    5 1
  11    4   16 1
  12    5    6 1
  13    5   30 1
  14    5   31 1
  15    6   32 1
  16    6   33 1
  17    7    8 2
  18    7    9 am
  19    9   10 1
  20    9   34 1
  21   10   11 ar
  22   10   15 ar
  23   11   12 ar
  24   11   25 1
  25   12   13 ar
  26   12   35 1
  27   13   14 ar
  28   13   36 1
  29   14   15 ar
  30   14   37 1
  31   15   38 1
  32   16   17 1
  33   16   39 1
  34   16   40 1
  35   17   18 ar
  36   17   22 ar
  37   18   19 ar
  38   18   41 1
  39   19   20 ar
  40   19   42 1
  41   20   21 ar
  42   20   24 1
  43   21   22 ar
  44   21   23 1
  45   22   43 1

#	End of record

