#	Name: ASD01812028
#	Creating user name:	WinNT
#	Creation time:	15. 06. 2019 19:27

#	Modifying user name:	WinNT
#	Modification time:	15. 06. 2019 19:27

#	Program:	/corina/corina34_cracker 3.40 0067  02.08.2006

@<TRIPOS>MOLECULE
ASD01812028
  48   51    0    0    0
SMALL
NO_CHARGES


@<TRIPOS>ATOM
   1 C1            -0.0169     1.3921     0.0097 C.ar    
   2 C2             0.0021    -0.0041     0.0020 C.ar    
   3 C3             1.1598     2.0864     0.0022 C.ar    
   4 C4            -1.0372    -1.0364     0.0059 C.2     
   5 C5             1.2305    -0.6893    -0.0134 C.ar    
   6 C6             2.3748     1.4148    -0.0130 C.ar    
   7 C7            -0.4110    -2.2237    -0.0067 C.2     
   8 S8            -2.7789    -0.7702     0.0247 S.o2    
   9 C9             2.4165     0.0380    -0.0197 C.ar    
  10 N10            0.9443    -2.0361    -0.0183 N.pl3   
  11 C11           -3.0985     0.0223     1.6248 C.3     
  12 C12           -4.5728     0.3035     1.7605 C.2     
  13 O13           -5.3330    -0.0008     0.8660 O.2     
  14 N14           -5.0464     0.8931     2.8761 N.am    
  15 C15           -6.4112     1.1534     3.0018 C.2     
  16 C16           -7.4267     0.8559     2.0545 C.2     
  17 N17           -7.0127     1.7149     4.0175 N.2     
  18 C18           -8.5611     1.2994     2.6423 C.2     
  19 O19           -8.2042     1.8041     3.8322 O.3     
  20 C20           -9.9548     1.2358     2.0725 C.3     
  21 H21           -4.4384     1.1365     3.5916 H       
  22 O22           -3.0050     0.1446    -1.0389 O.2     
  23 O23           -3.3336    -2.0781    -0.0036 O.2     
  24 C24            1.9423    -3.1084    -0.0345 C.3     
  25 C25            2.3890    -3.4003     1.3749 C.ar    
  26 C26            1.6599    -4.2715     2.1660 C.ar    
  27 C27            2.0716    -4.5386     3.4609 C.ar    
  28 C28            3.2093    -3.9355     3.9619 C.ar    
  29 C29            3.9367    -3.0655     3.1708 C.ar    
  30 C30            3.5300    -2.8025     1.8763 C.ar    
  31 F31            0.5474    -4.8603     1.6752 F       
  32 H32           -0.9583     1.9213     0.0170 H       
  33 H33            1.1446     3.1663     0.0078 H       
  34 H34            3.2966     1.9776    -0.0192 H       
  35 H35           -0.9039    -3.1847    -0.0068 H       
  36 H36            3.3667    -0.4752    -0.0311 H       
  37 H37           -2.7795    -0.6409     2.4289 H       
  38 H38           -2.5431     0.9584     1.6840 H       
  39 H39           -7.3182     0.3848     1.0887 H       
  40 H40          -10.4262     0.2989     2.3692 H       
  41 H41          -10.5408     2.0732     2.4512 H       
  42 H42           -9.9055     1.2892     0.9849 H       
  43 H43            1.5038    -4.0063    -0.4699 H       
  44 H44            2.8003    -2.7974    -0.6305 H       
  45 H45            1.5033    -5.2179     4.0791 H       
  46 H46            3.5304    -4.1435     4.9719 H       
  47 H47            4.8257    -2.5943     3.5634 H       
  48 H48            4.0989    -2.1228     1.2592 H       
@<TRIPOS>BOND
   1    1    2 ar
   2    1    3 ar
   3    1   32 1
   4    2    4 1
   5    2    5 ar
   6    3    6 ar
   7    3   33 1
   8    4    7 2
   9    4    8 1
  10    5    9 ar
  11    5   10 1
  12    6    9 ar
  13    6   34 1
  14    7   10 1
  15    7   35 1
  16    8   22 2
  17    8   23 2
  18    8   11 1
  19    9   36 1
  20   10   24 1
  21   11   12 1
  22   11   37 1
  23   11   38 1
  24   12   13 2
  25   12   14 am
  26   14   21 1
  27   14   15 1
  28   15   17 2
  29   15   16 1
  30   16   18 2
  31   16   39 1
  32   17   19 1
  33   18   20 1
  34   18   19 1
  35   20   40 1
  36   20   41 1
  37   20   42 1
  38   24   25 1
  39   24   43 1
  40   24   44 1
  41   25   26 ar
  42   25   30 ar
  43   26   27 ar
  44   26   31 1
  45   27   28 ar
  46   27   45 1
  47   28   29 ar
  48   28   46 1
  49   29   30 ar
  50   29   47 1
  51   30   48 1

#	End of record

