#	Name: ASD01882607
#	Creating user name:	WinNT
#	Creation time:	15. 06. 2019 19:44

#	Modifying user name:	WinNT
#	Modification time:	15. 06. 2019 19:44

#	Program:	/corina/corina34_cracker 3.40 0067  02.08.2006

@<TRIPOS>MOLECULE
ASD01882607
  54   58    0    0    0
SMALL
NO_CHARGES


@<TRIPOS>ATOM
   1 C1            -0.2578     1.2872     0.6599 C.2     
   2 C2            -0.1125    -0.2009     0.4632 C.3     
   3 C3             1.2448    -0.4644    -0.2027 C.3     
   4 C4             2.3358     0.3010     0.5516 C.3     
   5 C5             2.1634     1.8063     0.3169 C.3     
   6 N6             0.7725     2.1677     0.5888 N.pl3   
   7 N7            -1.0381     3.2191     1.0097 N.2     
   8 N8            -1.3337     1.9681     0.9139 N.2     
   9 C9             0.2451     3.3861     0.8161 C.2     
  10 C10            0.9916     4.6949     0.8400 C.3     
  11 C11            1.0070     5.2990    -0.5657 C.3     
  12 C12            1.6188     6.6917    -0.7294 C.3     
  13 C13            2.3658     5.4621    -1.2497 C.3     
  14 C14            1.5512    -1.9628    -0.1623 C.3     
  15 N15            0.5477    -2.6893    -0.9517 N.3     
  16 C16            0.8695    -4.1215    -1.0228 C.3     
  17 C17           -0.2384    -4.8534    -1.7839 C.3     
  18 N18           -0.3669    -4.2780    -3.1300 N.3     
  19 C19           -0.6887    -2.8458    -3.0590 C.3     
  20 C20            0.4192    -2.1139    -2.2978 C.3     
  21 C21           -1.3169    -4.9657    -3.8774 C.ar    
  22 C22           -1.5839    -4.5702    -5.1842 C.ar    
  23 C23           -2.5306    -5.2630    -5.9167 C.ar    
  24 C24           -3.1817    -6.3332    -5.3149 C.ar    
  25 C25           -2.8666    -6.6708    -4.0131 C.ar    
  26 N26           -1.9547    -5.9940    -3.3405 N.ar    
  27 Cl27          -4.3789    -7.2359    -6.1899 Cl      
  28 Cl28          -0.1793    -1.0354     2.0600 Cl      
  29 H29           -0.9143    -0.5673    -0.1780 H       
  30 H30            1.2134    -0.1268    -1.2387 H       
  31 H31            2.2572     0.0886     1.6178 H       
  32 H32            3.3152    -0.0128     0.1904 H       
  33 H33            2.8222     2.3586     0.9869 H       
  34 H34            2.4074     2.0452    -0.7183 H       
  35 H35            0.4970     5.3829     1.5257 H       
  36 H36            2.0153     4.5234     1.1729 H       
  37 H37            0.1534     5.0471    -1.1950 H       
  38 H38            1.1679     7.3560    -1.4667 H       
  39 H39            2.0103     7.1777     0.1642 H       
  40 H40            3.2488     5.1390    -0.6983 H       
  41 H41            2.4064     5.3173    -2.3293 H       
  42 H42            2.5418    -2.1425    -0.5800 H       
  43 H43            1.5234    -2.3116     0.8701 H       
  44 H44            1.8179    -4.2557    -1.5430 H       
  45 H45            0.9470    -4.5273    -0.0141 H       
  46 H46            0.0123    -5.9112    -1.8630 H       
  47 H47           -1.1817    -4.7419    -1.2492 H       
  48 H48           -0.7662    -2.4401    -4.0676 H       
  49 H49           -1.6371    -2.7116    -2.5388 H       
  50 H50            0.1685    -1.0561    -2.2188 H       
  51 H51            1.3625    -2.2254    -2.8325 H       
  52 H52           -1.0592    -3.7333    -5.6207 H       
  53 H53           -2.7590    -4.9786    -6.9332 H       
  54 H54           -3.3701    -7.5014    -3.5410 H       
@<TRIPOS>BOND
   1    1    2 1
   2    1    6 1
   3    1    8 2
   4    2    3 1
   5    2   28 1
   6    2   29 1
   7    3    4 1
   8    3   14 1
   9    3   30 1
  10    4    5 1
  11    4   31 1
  12    4   32 1
  13    5    6 1
  14    5   33 1
  15    5   34 1
  16    6    9 1
  17    7    8 1
  18    7    9 2
  19    9   10 1
  20   10   11 1
  21   10   35 1
  22   10   36 1
  23   11   12 1
  24   11   13 1
  25   11   37 1
  26   12   13 1
  27   12   38 1
  28   12   39 1
  29   13   40 1
  30   13   41 1
  31   14   15 1
  32   14   42 1
  33   14   43 1
  34   15   16 1
  35   15   20 1
  36   16   17 1
  37   16   44 1
  38   16   45 1
  39   17   18 1
  40   17   46 1
  41   17   47 1
  42   18   19 1
  43   18   21 1
  44   19   20 1
  45   19   48 1
  46   19   49 1
  47   20   50 1
  48   20   51 1
  49   21   22 ar
  50   21   26 ar
  51   22   23 ar
  52   22   52 1
  53   23   24 ar
  54   23   53 1
  55   24   25 ar
  56   24   27 1
  57   25   26 ar
  58   25   54 1

#	End of record

