#	Name: ASD03430794
#	Creating user name:	WinNT
#	Creation time:	15. 06. 2019 20:41

#	Modifying user name:	WinNT
#	Modification time:	15. 06. 2019 20:41

#	Program:	/corina/corina34_cracker 3.40 0067  02.08.2006

@<TRIPOS>MOLECULE
ASD03430794
  40   43    0    0    0
SMALL
NO_CHARGES


@<TRIPOS>ATOM
   1 C1            -0.0167     1.3778     0.0096 C.ar    
   2 C2             0.0021    -0.0041     0.0020 C.ar    
   3 C3             1.2026    -0.6813    -0.0133 C.ar    
   4 C4             2.4093     0.0137    -0.0110 C.ar    
   5 C5             2.3857     1.4047    -0.0082 C.ar    
   6 C6             1.1790     2.0825     0.0020 C.ar    
   7 C7             1.5516    -2.1451    -0.0478 C.3     
   8 C8             3.0371    -2.1438    -0.4339 C.3     
   9 C9             0.4263    -3.8583     1.0105 C.ar    
  10 C10            1.3170    -2.8196     1.2712 C.ar    
  11 C11            0.7173    -2.9059    -1.0378 C.2     
  12 N12            0.0955    -3.8817    -0.3465 N.am    
  13 O13            0.6212    -2.6850    -2.2266 O.2     
  14 C14            1.7862    -2.6027     2.5470 C.ar    
  15 C15            1.3729    -3.4185     3.5857 C.ar    
  16 C16            0.4883    -4.4520     3.3386 C.ar    
  17 C17            0.0161    -4.6743     2.0615 C.ar    
  18 O18            3.4711    -0.8405     0.0003 O.3     
  19 O19            0.6836     6.0015    -1.2099 O.3     
  20 C20            0.0697     5.5957     0.0150 C.3     
  21 C21           -0.1150     4.0769     0.0142 C.3     
  22 O22            1.1649     3.4414     0.0040 O.3     
  23 C23            0.9022     7.4100    -1.3118 C.3     
  24 H24           -0.9580     1.9072     0.0169 H       
  25 H25           -0.9268    -0.5551     0.0084 H       
  26 H26            3.3131     1.9581    -0.0135 H       
  27 H27            3.5759    -2.9282     0.0976 H       
  28 H28            3.1570    -2.2524    -1.5119 H       
  29 H29           -0.5108    -4.5256    -0.7449 H       
  30 H30            2.4773    -1.7949     2.7376 H       
  31 H31            1.7408    -3.2485     4.5868 H       
  32 H32            0.1657    -5.0885     4.1493 H       
  33 H33           -0.6745    -5.4837     1.8764 H       
  34 H34            0.7048     5.8840     0.8526 H       
  35 H35           -0.9020     6.0798     0.1123 H       
  36 H36           -0.6625     3.7770     0.9077 H       
  37 H37           -0.6753     3.7795    -0.8722 H       
  38 H38           -0.0523     7.9318    -1.2420 H       
  39 H39            1.5545     7.7360    -0.5017 H       
  40 H40            1.3710     7.6367    -2.2693 H       
@<TRIPOS>BOND
   1    1    2 ar
   2    1    6 ar
   3    1   24 1
   4    2    3 ar
   5    2   25 1
   6    3    4 ar
   7    3    7 1
   8    4    5 ar
   9    4   18 1
  10    5    6 ar
  11    5   26 1
  12    6   22 1
  13    7    8 1
  14    7   10 1
  15    7   11 1
  16    8   18 1
  17    8   27 1
  18    8   28 1
  19    9   10 ar
  20    9   12 1
  21    9   17 ar
  22   10   14 ar
  23   11   12 am
  24   11   13 2
  25   12   29 1
  26   14   15 ar
  27   14   30 1
  28   15   16 ar
  29   15   31 1
  30   16   17 ar
  31   16   32 1
  32   17   33 1
  33   19   20 1
  34   19   23 1
  35   20   21 1
  36   20   34 1
  37   20   35 1
  38   21   22 1
  39   21   36 1
  40   21   37 1
  41   23   38 1
  42   23   39 1
  43   23   40 1

#	End of record

