#	Name: ASD01881323
#	Creating user name:	WinNT
#	Creation time:	15. 06. 2019 19:42

#	Modifying user name:	WinNT
#	Modification time:	15. 06. 2019 19:42

#	Program:	/corina/corina34_cracker 3.40 0067  02.08.2006

@<TRIPOS>MOLECULE
ASD01881323
  63   65    0    0    0
SMALL
NO_CHARGES


@<TRIPOS>ATOM
   1 C1             0.2414     1.2944    -0.4250 C.2     
   2 C2             0.1826    -0.1617    -0.6574 C.ar    
   3 C3             1.3078    -0.8432    -1.1334 C.ar    
   4 C4             1.2466    -2.2075    -1.3493 C.ar    
   5 C5             0.0774    -2.8994    -1.0962 C.ar    
   6 C6            -1.0442    -2.2304    -0.6240 C.ar    
   7 C7            -0.9948    -0.8664    -0.3978 C.ar    
   8 O8             1.2686     1.9040    -0.6470 O.2     
   9 O9            -0.8456     1.9487     0.0282 O.3     
  10 F10            2.4520    -0.1694    -1.3821 F       
  11 O11           -2.1911    -2.9180    -0.3783 O.3     
  12 C12           -2.1703    -4.3248    -0.6281 C.3     
  13 C13           -3.5392    -4.9221    -0.2962 C.3     
  14 C14           -3.5169    -6.4283    -0.5637 C.3     
  15 C15           -4.8858    -7.0256    -0.2318 C.3     
  16 O16           -4.8650    -8.4324    -0.4816 O.3     
  17 C17           -6.0094    -9.1185    -0.2364 C.ar    
  18 C18           -6.0559   -10.4906    -0.4588 C.ar    
  19 C19           -7.2042   -11.1886    -0.2144 C.ar    
  20 C20           -8.3405   -10.5229     0.2619 C.ar    
  21 C21           -8.2942    -9.1414     0.4860 C.ar    
  22 C22           -7.1302    -8.4483     0.2419 C.ar    
  23 C23           -7.2486   -12.6752    -0.4578 C.3     
  24 C24           -4.8350   -11.2099    -0.9718 C.3     
  25 C25           -9.5766   -11.2710     0.5250 C.2     
  26 O26           -9.5845   -12.4805     0.4338 O.2     
  27 C27          -10.8351   -10.5360     0.9082 C.3     
  28 C28          -11.9675   -11.5420     1.1245 C.3     
  29 C29          -13.2249   -10.8181     1.6370 C.3     
  30 C30          -14.3310   -11.0611     0.5896 C.3     
  31 C31          -13.8918   -12.3590    -0.1326 C.3     
  32 C32          -12.3534   -12.1996    -0.2165 C.3     
  33 H33            2.1150    -2.7340    -1.7171 H       
  34 H34            0.0356    -3.9650    -1.2668 H       
  35 H35           -1.8658    -0.3472    -0.0260 H       
  36 H36           -0.7588     2.9020     0.1652 H       
  37 H37           -1.9407    -4.5040    -1.6785 H       
  38 H38           -1.4086    -4.7933    -0.0048 H       
  39 H39           -3.7687    -4.7429     0.7542 H       
  40 H40           -4.3008    -4.4536    -0.9196 H       
  41 H41           -3.2874    -6.6075    -1.6141 H       
  42 H42           -2.7553    -6.8968     0.0597 H       
  43 H43           -5.1154    -6.8465     0.8186 H       
  44 H44           -5.6475    -6.5571    -0.8551 H       
  45 H45           -9.1672    -8.6223     0.8533 H       
  46 H46           -7.0886    -7.3835     0.4178 H       
  47 H47           -7.0656   -13.2023     0.4786 H       
  48 H48           -8.2298   -12.9509    -0.8443 H       
  49 H49           -6.4825   -12.9475    -1.1837 H       
  50 H50           -4.2331   -11.5503    -0.1292 H       
  51 H51           -5.1430   -12.0683    -1.5686 H       
  52 H52           -4.2459   -10.5311    -1.5885 H       
  53 H53          -10.6640    -9.9780     1.8288 H       
  54 H54          -11.1099    -9.8457     0.1106 H       
  55 H55          -11.6579   -12.3042     1.8395 H       
  56 H56          -13.5260   -11.2296     2.6004 H       
  57 H57          -13.0284    -9.7501     1.7317 H       
  58 H58          -15.2947   -11.2040     1.0786 H       
  59 H59          -14.3789   -10.2303    -0.1144 H       
  60 H60          -14.1576   -13.2373     0.4558 H       
  61 H61          -14.3295   -12.4135    -1.1293 H       
  62 H62          -12.0819   -11.5527    -1.0508 H       
  63 H63          -11.8738   -13.1734    -0.3159 H       
@<TRIPOS>BOND
   1    1    2 1
   2    1    8 2
   3    1    9 1
   4    2    3 ar
   5    2    7 ar
   6    3    4 ar
   7    3   10 1
   8    4    5 ar
   9    4   33 1
  10    5    6 ar
  11    5   34 1
  12    6    7 ar
  13    6   11 1
  14    7   35 1
  15    9   36 1
  16   11   12 1
  17   12   13 1
  18   12   37 1
  19   12   38 1
  20   13   14 1
  21   13   39 1
  22   13   40 1
  23   14   15 1
  24   14   41 1
  25   14   42 1
  26   15   16 1
  27   15   43 1
  28   15   44 1
  29   16   17 1
  30   17   18 ar
  31   17   22 ar
  32   18   19 ar
  33   18   24 1
  34   19   20 ar
  35   19   23 1
  36   20   21 ar
  37   20   25 1
  38   21   22 ar
  39   21   45 1
  40   22   46 1
  41   23   47 1
  42   23   48 1
  43   23   49 1
  44   24   50 1
  45   24   51 1
  46   24   52 1
  47   25   26 2
  48   25   27 1
  49   27   28 1
  50   27   53 1
  51   27   54 1
  52   28   29 1
  53   28   32 1
  54   28   55 1
  55   29   30 1
  56   29   56 1
  57   29   57 1
  58   30   31 1
  59   30   58 1
  60   30   59 1
  61   31   32 1
  62   31   60 1
  63   31   61 1
  64   32   62 1
  65   32   63 1

#	End of record

