#	Name: ASD00311483
#	Creating user name:	WinNT
#	Creation time:	15. 06. 2019 18:34

#	Modifying user name:	WinNT
#	Modification time:	15. 06. 2019 18:34

#	Program:	/corina/corina34_cracker 3.40 0067  02.08.2006

@<TRIPOS>MOLECULE
ASD00311483
  42   46    0    0    0
SMALL
NO_CHARGES


@<TRIPOS>ATOM
   1 C1            -0.0167     1.3778     0.0096 C.2     
   2 C2             0.0021    -0.0041     0.0020 C.2     
   3 C3             1.2588    -0.6766    -0.0131 C.2     
   4 C4             2.4315     0.0673    -0.0199 C.2     
   5 C5             2.3574     1.4752    -0.0117 C.2     
   6 N6             1.1649     2.0904     0.0022 N.am    
   7 C7            -1.3432    -0.5751     0.0118 C.2     
   8 C8            -2.3226     0.3260     0.0260 C.2     
   9 S9            -1.6793     1.9562     0.0358 S.3     
  10 O10            3.3823     2.1373    -0.0171 O.2     
  11 C11            4.1351    -1.3828    -1.1313 C.ar    
  12 C12            3.7477    -0.6120    -0.0352 C.ar    
  13 C13            4.6228    -0.4909     1.0490 C.ar    
  14 C14            5.8410    -1.1450     0.9853 C.ar    
  15 C15            6.1511    -1.8904    -0.1376 C.ar    
  16 N16            5.3054    -1.9866    -1.1455 N.ar    
  17 C17           -1.5956    -2.0349     0.0064 C.ar    
  18 C18           -2.4709    -2.5953     0.9373 C.ar    
  19 C19           -2.7053    -3.9526     0.9319 C.ar    
  20 C20           -2.0675    -4.7667    -0.0035 C.ar    
  21 C21           -1.1926    -4.2071    -0.9341 C.ar    
  22 C22           -0.9625    -2.8491    -0.9334 C.ar    
  23 O23           -3.0848    -8.2195     0.4897 O.3     
  24 C24           -3.1372    -6.9223     0.8257 C.2     
  25 C25           -2.3195    -6.2287    -0.0082 C.2     
  26 C26           -1.7376    -7.2245    -0.9153 C.2     
  27 C27           -2.2536    -8.4089    -0.5463 C.2     
  28 O28            1.3087    -2.0291    -0.0204 O.3     
  29 H29            1.1327     3.0598     0.0077 H       
  30 H30           -3.3752     0.0844     0.0344 H       
  31 H31            3.4677    -1.4890    -1.9737 H       
  32 H32            4.3551     0.0983     1.9136 H       
  33 H33            6.5421    -1.0737     1.8037 H       
  34 H34            7.1010    -2.4015    -0.1903 H       
  35 H35           -2.9644    -1.9649     1.6623 H       
  36 H36           -3.3828    -4.3864     1.6525 H       
  37 H37           -0.6986    -4.8381    -1.6581 H       
  38 H38           -0.2886    -2.4152    -1.6572 H       
  39 H39           -3.7296    -6.5003     1.6241 H       
  40 H40           -1.0373    -7.0423    -1.7171 H       
  41 H41           -2.0345    -9.3600    -1.0088 H       
  42 H42            2.2060    -2.3895    -0.0307 H       
@<TRIPOS>BOND
   1    1    2 2
   2    1    6 1
   3    1    9 1
   4    2    3 1
   5    2    7 1
   6    3    4 2
   7    3   28 1
   8    4    5 1
   9    4   12 1
  10    5    6 am
  11    5   10 2
  12    6   29 1
  13    7    8 2
  14    7   17 1
  15    8    9 1
  16    8   30 1
  17   11   12 ar
  18   11   16 ar
  19   11   31 1
  20   12   13 ar
  21   13   14 ar
  22   13   32 1
  23   14   15 ar
  24   14   33 1
  25   15   16 ar
  26   15   34 1
  27   17   18 ar
  28   17   22 ar
  29   18   19 ar
  30   18   35 1
  31   19   20 ar
  32   19   36 1
  33   20   21 ar
  34   20   25 1
  35   21   22 ar
  36   21   37 1
  37   22   38 1
  38   23   24 1
  39   23   27 1
  40   24   25 2
  41   24   39 1
  42   25   26 1
  43   26   27 2
  44   26   40 1
  45   27   41 1
  46   28   42 1

#	End of record

