#	Name: ASD07931762
#	Creating user name:	WinNT
#	Creation time:	15. 06. 2019 21:13

#	Modifying user name:	WinNT
#	Modification time:	15. 06. 2019 21:13

#	Program:	/corina/corina34_cracker 3.40 0067  02.08.2006

@<TRIPOS>MOLECULE
ASD07931762
  60   64    0    0    0
SMALL
NO_CHARGES


@<TRIPOS>ATOM
   1 C1            -0.0180     1.4754     0.0102 C.2     
   2 C2             0.0021    -0.0041     0.0020 C.2     
   3 N3             1.1814     2.1509     0.0023 N.am    
   4 N4             1.1194    -0.6400     0.4288 N.am    
   5 C5             2.2493     0.1650     0.9143 C.3     
   6 C6             2.4261     1.3707    -0.0208 C.3     
   7 C7            -1.2008     2.1485     0.0195 C.2     
   8 C8            -1.2247     3.5486     0.0291 C.2     
   9 C9            -0.0458     4.2425     0.0303 C.2     
  10 C10            1.2139     3.4948     0.0143 C.2     
  11 O11           -0.9642    -0.6358    -0.3794 O.2     
  12 O12            2.2807     4.0852     0.0118 O.2     
  13 C13            1.2002    -2.1026     0.4064 C.3     
  14 O14            0.9040    -2.1526    -2.0207 O.3     
  15 C15            1.7676    -2.5615    -0.9383 C.3     
  16 C16            1.7603    -4.1084    -1.0345 C.3     
  17 C17            1.7318    -4.3380    -2.5652 C.3     
  18 C18            1.1937    -3.0117    -3.1362 C.3     
  19 C19           -0.0638    -3.2667    -3.9267 C.ar    
  20 C20           -1.0464    -2.2968    -3.9941 C.ar    
  21 C21           -2.1999    -2.5308    -4.7191 C.ar    
  22 C22           -2.3705    -3.7344    -5.3771 C.ar    
  23 C23           -1.3874    -4.7040    -5.3104 C.ar    
  24 C24           -0.2321    -4.4684    -4.5889 C.ar    
  25 C25           -3.6284    -3.9899    -6.1667 C.3     
  26 F26           -3.4456    -3.5623    -7.4862 F       
  27 F27           -3.9159    -5.3590    -6.1558 F       
  28 F28           -4.6913    -3.2855    -5.5912 F       
  29 C29            2.2517    -2.3633    -4.0312 C.3     
  30 C30            0.4239     6.4402     1.0348 C.2     
  31 N31            0.2552     7.6848     0.6804 N.2     
  32 C32           -0.3161     7.7283    -0.5326 C.2     
  33 C33           -0.5113     6.4636    -0.9513 C.2     
  34 N34           -0.0431     5.6402     0.0404 N.pl3   
  35 C35           -0.6774     8.9771    -1.2948 C.3     
  36 H36            2.0426     0.5136     1.9261 H       
  37 H37            3.1572    -0.4381     0.9099 H       
  38 H38            2.6247     1.0242    -1.0350 H       
  39 H39            3.2543     1.9881     0.3270 H       
  40 H40           -2.1297     1.5976     0.0190 H       
  41 H41           -2.1668     4.0767     0.0353 H       
  42 H42            1.8522    -2.4428     1.2110 H       
  43 H43            0.2042    -2.5236     0.5432 H       
  44 H44            2.7755    -2.1727    -1.0836 H       
  45 H45            2.6642    -4.5298    -0.5947 H       
  46 H46            0.8697    -4.5233    -0.5623 H       
  47 H47            2.7361    -4.5353    -2.9402 H       
  48 H48            1.0618    -5.1607    -2.8152 H       
  49 H49           -0.9131    -1.3564    -3.4800 H       
  50 H50           -2.9679    -1.7733    -4.7713 H       
  51 H51           -1.5208    -5.6445    -5.8242 H       
  52 H52            0.5376    -5.2244    -4.5399 H       
  53 H53            3.1546    -2.1767    -3.4498 H       
  54 H54            2.4850    -3.0313    -4.8604 H       
  55 H55            1.8692    -1.4200    -4.4211 H       
  56 H56            0.8650     6.1025     1.9610 H       
  57 H57           -0.9521     6.1566    -1.8883 H       
  58 H58            0.1651     9.2797    -1.9167 H       
  59 H59           -1.5430     8.7793    -1.9270 H       
  60 H60           -0.9156     9.7756    -0.5921 H       
@<TRIPOS>BOND
   1    1    2 1
   2    1    3 1
   3    1    7 2
   4    2    4 am
   5    2   11 2
   6    3    6 1
   7    3   10 am
   8    4    5 1
   9    4   13 1
  10    5    6 1
  11    5   36 1
  12    5   37 1
  13    6   38 1
  14    6   39 1
  15    7    8 1
  16    7   40 1
  17    8    9 2
  18    8   41 1
  19    9   10 1
  20    9   34 1
  21   10   12 2
  22   13   15 1
  23   13   42 1
  24   13   43 1
  25   14   15 1
  26   14   18 1
  27   15   16 1
  28   15   44 1
  29   16   17 1
  30   16   45 1
  31   16   46 1
  32   17   18 1
  33   17   47 1
  34   17   48 1
  35   18   19 1
  36   18   29 1
  37   19   20 ar
  38   19   24 ar
  39   20   21 ar
  40   20   49 1
  41   21   22 ar
  42   21   50 1
  43   22   23 ar
  44   22   25 1
  45   23   24 ar
  46   23   51 1
  47   24   52 1
  48   25   26 1
  49   25   27 1
  50   25   28 1
  51   29   53 1
  52   29   54 1
  53   29   55 1
  54   30   31 2
  55   30   34 1
  56   30   56 1
  57   31   32 1
  58   32   33 2
  59   32   35 1
  60   33   34 1
  61   33   57 1
  62   35   58 1
  63   35   59 1
  64   35   60 1

#	End of record

