#	Name: ASD01815622
#	Creating user name:	WinNT
#	Creation time:	15. 06. 2019 19:33

#	Modifying user name:	WinNT
#	Modification time:	15. 06. 2019 19:33

#	Program:	/corina/corina34_cracker 3.40 0067  02.08.2006

@<TRIPOS>MOLECULE
ASD01815622
  37   39    0    0    0
SMALL
NO_CHARGES


@<TRIPOS>ATOM
   1 C1             0.0168     1.0411     0.3887 C.ar    
   2 C2             0.1610    -0.3383     0.3536 C.ar    
   3 C3             1.4064    -0.9127     0.2045 C.ar    
   4 C4             2.5362    -0.1036     0.0869 C.ar    
   5 C5             2.3853     1.2926     0.1225 C.ar    
   6 C6             1.1195     1.8585     0.2743 C.ar    
   7 N7             3.7869    -0.6644    -0.0621 N.pl3   
   8 C8             4.9013     0.0683    -0.1781 C.2     
   9 C9             4.8797     1.4485    -0.1574 C.2     
  10 C10            3.5881     2.1370    -0.0030 C.2     
  11 O11            3.5156     3.3531     0.0209 O.2     
  12 C12            6.1255     2.2174    -0.2873 C.2     
  13 O13            7.1867     1.6383    -0.4143 O.2     
  14 O14            6.0913     3.5648    -0.2656 O.3     
  15 C15            3.9012    -2.1246    -0.0944 C.3     
  16 C16            3.5945    -2.6219    -1.4835 C.ar    
  17 C17            3.5065    -3.9790    -1.7281 C.ar    
  18 C18            3.2256    -4.4356    -3.0026 C.ar    
  19 C19            3.0326    -3.5353    -4.0335 C.ar    
  20 C20            3.1197    -2.1773    -3.7912 C.ar    
  21 C21            3.3952    -1.7188    -2.5143 C.ar    
  22 F22            1.5315    -2.2575     0.1730 F       
  23 F23            3.4802    -0.3917    -2.2762 F       
  24 C24            3.7172    -4.9619    -0.6053 C.3     
  25 F25            3.6309    -6.2658    -1.1047 F       
  26 F26            4.9816    -4.7613    -0.0410 F       
  27 F27            2.7347    -4.7709     0.3722 F       
  28 H28           -0.9653     1.4760     0.5019 H       
  29 H29           -0.7109    -0.9692     0.4443 H       
  30 H30            1.0045     2.9321     0.3012 H       
  31 H31            5.8490    -0.4373    -0.2914 H       
  32 H32            6.9361     4.0269    -0.3545 H       
  33 H33            4.9151    -2.4158     0.1802 H       
  34 H34            3.1943    -2.5601     0.6118 H       
  35 H35            3.1574    -5.4965    -3.1928 H       
  36 H36            2.8140    -3.8930    -5.0288 H       
  37 H37            2.9692    -1.4740    -4.5969 H       
@<TRIPOS>BOND
   1    1    2 ar
   2    1    6 ar
   3    1   28 1
   4    2    3 ar
   5    2   29 1
   6    3    4 ar
   7    3   22 1
   8    4    5 ar
   9    4    7 1
  10    5    6 ar
  11    5   10 1
  12    6   30 1
  13    7    8 1
  14    7   15 1
  15    8    9 2
  16    8   31 1
  17    9   10 1
  18    9   12 1
  19   10   11 2
  20   12   13 2
  21   12   14 1
  22   14   32 1
  23   15   16 1
  24   15   33 1
  25   15   34 1
  26   16   17 ar
  27   16   21 ar
  28   17   18 ar
  29   17   24 1
  30   18   19 ar
  31   18   35 1
  32   19   20 ar
  33   19   36 1
  34   20   21 ar
  35   20   37 1
  36   21   23 1
  37   24   25 1
  38   24   26 1
  39   24   27 1

#	End of record

