#	Name: ASD09610030
#	Creating user name:	WinNT
#	Creation time:	15. 06. 2019 21:22

#	Modifying user name:	WinNT
#	Modification time:	15. 06. 2019 21:22

#	Program:	/corina/corina34_cracker 3.40 0067  02.08.2006

@<TRIPOS>MOLECULE
ASD09610030
  82   84    0    0    0
SMALL
NO_CHARGES


@<TRIPOS>ATOM
   1 C1             0.3201     1.4088    -0.9548 C.2     
   2 C2             0.4046    -0.0755    -1.2014 C.3     
   3 C3             1.8689    -0.4794    -1.3852 C.3     
   4 O4             1.3276     2.0752    -0.9288 O.2     
   5 O5            -0.8749     1.9913    -0.7696 O.3     
   6 C6            -0.1850    -0.8256    -0.0053 C.3     
   7 O7            -0.9947     5.9719     0.7033 O.3     
   8 C8            -0.8115     7.3053     0.1441 C.3     
   9 C9            -0.8541     7.1767    -1.3820 C.3     
  10 C10            0.2323     6.2788    -1.8694 C.2     
  11 O11            0.1758     4.9907    -2.0734 O.3     
  12 C12           -0.9910     4.1750    -1.8762 C.3     
  13 C13           -0.8806     3.4246    -0.5373 C.3     
  14 C14           -2.1271     3.8228     0.2983 C.3     
  15 C15           -2.1198     5.3447     0.3046 C.2     
  16 O16           -3.0937     5.9726    -0.0377 O.2     
  17 O17            1.2930     6.8076    -2.1044 O.2     
  18 C18           -1.1037     3.1635    -3.0187 C.3     
  19 N19           -2.1510     6.6258    -1.7830 N.am    
  20 C20           -2.9156     7.2841    -2.6765 C.2     
  21 O21           -2.5293     8.3351    -3.1496 O.2     
  22 C22           -4.2242     6.7282    -3.0812 C.ar    
  23 C23           -5.0124     7.4145    -4.0073 C.ar    
  24 C24           -6.2473     6.8710    -4.3773 C.ar    
  25 C25           -6.6361     5.6675    -3.8044 C.ar    
  26 C26           -5.7980     5.0467    -2.8924 C.ar    
  27 N27           -4.6398     5.5753    -2.5648 N.ar    
  28 O28           -7.0462     7.5051    -5.2743 O.3     
  29 C29           -8.2897     6.8772    -5.5930 C.3     
  30 O30           -4.5879     8.5889    -4.5391 O.3     
  31 C31           -3.8211     8.5166    -5.7428 C.3     
  32 O32           -4.7001     8.2178    -6.8593 O.3     
  33 C33           -5.4760     9.2169    -7.3083 C.2     
  34 O34           -5.4225    10.3049    -6.7857 O.2     
  35 C35           -6.4138     8.9814    -8.4642 C.3     
  36 C36           -7.1757    10.2715    -8.7737 C.3     
  37 C37           -5.6100     8.5561    -9.6946 C.3     
  38 C38           -2.0064     3.2837     1.7250 C.3     
  39 C39           -3.2770     3.5746     2.4812 C.ar    
  40 C40           -4.3129     2.6594     2.4701 C.ar    
  41 C41           -5.4785     2.9263     3.1637 C.ar    
  42 C42           -5.6080     4.1082     3.8688 C.ar    
  43 C43           -4.5718     5.0231     3.8806 C.ar    
  44 C44           -3.4045     4.7542     3.1905 C.ar    
  45 H45           -0.1573    -0.3270    -2.1009 H       
  46 H46            2.4308    -0.2279    -0.4857 H       
  47 H47            1.9300    -1.5530    -1.5636 H       
  48 H48            2.2889     0.0550    -2.2373 H       
  49 H49           -1.2282    -0.5379     0.1256 H       
  50 H50           -0.1239    -1.8992    -0.1837 H       
  51 H51            0.3769    -0.5741     0.8942 H       
  52 H52           -1.6132     7.9617     0.4825 H       
  53 H53            0.1529     7.7074     0.4546 H       
  54 H54           -0.7311     8.1634    -1.8285 H       
  55 H55           -1.8782     4.8082    -1.8649 H       
  56 H56            0.0290     3.7230    -0.0161 H       
  57 H57           -3.0357     3.4497    -0.1743 H       
  58 H58           -0.2160     2.5312    -3.0330 H       
  59 H59           -1.9885     2.5445    -2.8698 H       
  60 H60           -1.1870     3.6944    -3.9670 H       
  61 H61           -2.4593     5.7871    -1.4056 H       
  62 H62           -7.5831     5.2196    -4.0669 H       
  63 H63           -6.0994     4.1105    -2.4462 H       
  64 H64           -8.8286     7.4860    -6.3190 H       
  65 H65           -8.1006     5.8903    -6.0155 H       
  66 H66           -8.8883     6.7762    -4.6877 H       
  67 H67           -3.3257     9.4719    -5.9159 H       
  68 H68           -3.0720     7.7303    -5.6496 H       
  69 H69           -7.1219     8.1949    -8.2031 H       
  70 H70           -6.4676    11.0580    -9.0348 H       
  71 H71           -7.8540    10.1012    -9.6098 H       
  72 H72           -7.7484    10.5745    -7.8972 H       
  73 H73           -4.9018     9.3425    -9.9556 H       
  74 H74           -5.0671     7.6369    -9.4740 H       
  75 H75           -6.2883     8.3857   -10.5306 H       
  76 H76           -1.8406     2.2068     1.6937 H       
  77 H77           -1.1670     3.7661     2.2259 H       
  78 H78           -4.2117     1.7359     1.9193 H       
  79 H79           -6.2881     2.2115     3.1545 H       
  80 H80           -6.5189     4.3171     4.4101 H       
  81 H81           -4.6731     5.9467     4.4312 H       
  82 H82           -2.5935     5.4673     3.2028 H       
@<TRIPOS>BOND
   1    1    2 1
   2    1    4 2
   3    1    5 1
   4    2    3 1
   5    2    6 1
   6    2   45 1
   7    3   46 1
   8    3   47 1
   9    3   48 1
  10    5   13 1
  11    6   49 1
  12    6   50 1
  13    6   51 1
  14    7    8 1
  15    7   15 1
  16    8    9 1
  17    8   52 1
  18    8   53 1
  19    9   10 1
  20    9   19 1
  21    9   54 1
  22   10   11 1
  23   10   17 2
  24   11   12 1
  25   12   13 1
  26   12   18 1
  27   12   55 1
  28   13   14 1
  29   13   56 1
  30   14   15 1
  31   14   38 1
  32   14   57 1
  33   15   16 2
  34   18   58 1
  35   18   59 1
  36   18   60 1
  37   19   20 am
  38   19   61 1
  39   20   21 2
  40   20   22 1
  41   22   23 ar
  42   22   27 ar
  43   23   24 ar
  44   23   30 1
  45   24   25 ar
  46   24   28 1
  47   25   26 ar
  48   25   62 1
  49   26   27 ar
  50   26   63 1
  51   28   29 1
  52   29   64 1
  53   29   65 1
  54   29   66 1
  55   30   31 1
  56   31   32 1
  57   31   67 1
  58   31   68 1
  59   32   33 1
  60   33   34 2
  61   33   35 1
  62   35   36 1
  63   35   37 1
  64   35   69 1
  65   36   70 1
  66   36   71 1
  67   36   72 1
  68   37   73 1
  69   37   74 1
  70   37   75 1
  71   38   39 1
  72   38   76 1
  73   38   77 1
  74   39   40 ar
  75   39   44 ar
  76   40   41 ar
  77   40   78 1
  78   41   42 ar
  79   41   79 1
  80   42   43 ar
  81   42   80 1
  82   43   44 ar
  83   43   81 1
  84   44   82 1

#	End of record

