#	Name: ASD04840016
#	Creating user name:	WinNT
#	Creation time:	15. 06. 2019 20:52

#	Modifying user name:	WinNT
#	Modification time:	15. 06. 2019 20:52

#	Program:	/corina/corina34_cracker 3.40 0067  02.08.2006

@<TRIPOS>MOLECULE
ASD04840016
  43   45    0    0    0
SMALL
NO_CHARGES


@<TRIPOS>ATOM
   1 C1            -0.0187     1.5258     0.0104 C.3     
   2 C2             0.0021    -0.0041     0.0020 C.3     
   3 O3            -1.3386    -0.4987     0.0122 O.3     
   4 P4            -1.6939    -2.0690     0.0071 P.3     
   5 O5            -1.0113    -2.7329     1.1401 O.2     
   6 C6            -3.4965    -2.2846     0.1730 C.3     
   7 C7            -3.9408    -1.7796     1.5215 C.ar    
   8 C8            -4.3161    -0.4497     1.6580 C.ar    
   9 C9            -4.7248     0.0234     2.8889 C.ar    
  10 Cl10          -5.2012     1.6800     3.0950 Cl      
  11 C11           -4.7447    -0.8741     3.9704 C.ar    
  12 C12           -4.3482    -2.2120     3.7510 C.ar    
  13 N13           -3.9694    -2.6095     2.5405 N.ar    
  14 C14           -4.3720    -3.1420     4.8851 C.ar    
  15 C15           -3.9927    -4.4776     4.7391 C.ar    
  16 C16           -4.0281    -5.3128     5.8196 C.ar    
  17 C17           -4.4376    -4.8479     7.0634 C.ar    
  18 C18           -4.8141    -3.5480     7.2369 C.ar    
  19 C19           -4.7891    -2.6652     6.1481 C.ar    
  20 C20           -5.1745    -1.3128     6.2994 C.ar    
  21 C21           -5.1516    -0.4566     5.2574 C.ar    
  22 O22           -1.1998    -2.7266    -1.3769 O.3     
  23 C23            0.1770    -2.8133    -1.7496 C.3     
  24 C24            0.2936    -3.4900    -3.1168 C.3     
  25 H25            1.0039     1.9031     0.0027 H       
  26 H26           -0.5459     1.8868    -0.8726 H       
  27 H27           -0.5289     1.8773     0.9072 H       
  28 H28            0.5123    -0.3556    -0.8948 H       
  29 H29            0.5293    -0.3651     0.8851 H       
  30 H30           -4.0034    -1.7218    -0.6108 H       
  31 H31           -3.7460    -3.3416     0.0806 H       
  32 H32           -4.2880     0.2119     0.8048 H       
  33 H33           -3.6732    -4.8489     3.7765 H       
  34 H34           -3.7348    -6.3459     5.7057 H       
  35 H35           -4.4585    -5.5251     7.9045 H       
  36 H36           -5.1305    -3.2006     8.2093 H       
  37 H37           -5.4917    -0.9581     7.2689 H       
  38 H38           -5.4524     0.5694     5.4097 H       
  39 H39            0.6029    -1.8114    -1.8025 H       
  40 H40            0.7182    -3.3994    -1.0068 H       
  41 H41           -0.1323    -4.4919    -3.0639 H       
  42 H42           -0.2476    -2.9039    -3.8596 H       
  43 H43            1.3438    -3.5561    -3.4011 H       
@<TRIPOS>BOND
   1    1    2 1
   2    1   25 1
   3    1   26 1
   4    1   27 1
   5    2    3 1
   6    2   28 1
   7    2   29 1
   8    3    4 1
   9    4    5 2
  10    4    6 1
  11    4   22 1
  12    6    7 1
  13    6   30 1
  14    6   31 1
  15    7    8 ar
  16    7   13 ar
  17    8    9 ar
  18    8   32 1
  19    9   10 1
  20    9   11 ar
  21   11   12 ar
  22   11   21 ar
  23   12   13 ar
  24   12   14 ar
  25   14   15 ar
  26   14   19 ar
  27   15   16 ar
  28   15   33 1
  29   16   17 ar
  30   16   34 1
  31   17   18 ar
  32   17   35 1
  33   18   19 ar
  34   18   36 1
  35   19   20 ar
  36   20   21 ar
  37   20   37 1
  38   21   38 1
  39   22   23 1
  40   23   24 1
  41   23   39 1
  42   23   40 1
  43   24   41 1
  44   24   42 1
  45   24   43 1

#	End of record

