#	Name: ASD01810106
#	Creating user name:	WinNT
#	Creation time:	15. 06. 2019 19:23

#	Modifying user name:	WinNT
#	Modification time:	15. 06. 2019 19:23

#	Program:	/corina/corina34_cracker 3.40 0067  02.08.2006

@<TRIPOS>MOLECULE
ASD01810106
  64   68    0    0    0
SMALL
NO_CHARGES


@<TRIPOS>ATOM
   1 C1            -0.2775     1.8256     0.9541 C.ar    
   2 C2            -0.3342     0.4422     0.9881 C.ar    
   3 C3             0.8232    -0.3054     0.8746 C.ar    
   4 C4             2.0447     0.3327     0.7256 C.ar    
   5 C5             2.1012     1.7277     0.6909 C.ar    
   6 C6             0.9358     2.4694     0.8059 C.ar    
   7 N7             3.3525    -0.1266     0.5890 N.am    
   8 C8             4.1672     0.9393     0.4764 C.2     
   9 N9             3.4422     2.0724     0.5342 N.am    
  10 O10            5.3755     0.8867     0.3425 O.2     
  11 C11            3.9727     3.4351     0.4465 C.3     
  12 C12            4.9646     3.6726     1.5886 C.3     
  13 C13            5.5608     5.0759     1.4564 C.3     
  14 N14            6.2400     5.2004     0.1605 N.3     
  15 C15            5.2979     5.0232    -0.9520 C.3     
  16 C16            4.6939     3.6184    -0.8917 C.3     
  17 C17            6.9423     6.4864     0.0557 C.3     
  18 C18            7.7377     6.5279    -1.2511 C.3     
  19 C19            8.4962     7.8559    -1.3407 C.3     
  20 N20            7.5387     8.9589    -1.1817 N.am    
  21 C21            6.6602     8.9676    -0.0041 C.3     
  22 C22            5.9223     7.6272     0.0705 C.3     
  23 C23            7.4681     9.9444    -2.0984 C.2     
  24 C24            6.5325    11.9967    -2.8557 C.ar    
  25 C25            5.3411    12.5732    -3.2703 C.ar    
  26 C26            5.3635    13.6704    -4.1213 C.ar    
  27 C27            6.5791    14.1869    -4.5545 C.ar    
  28 C28            7.7636    13.6094    -4.1396 C.ar    
  29 C29            7.7443    12.5213    -3.2884 C.ar    
  30 O30            8.2647     9.9791    -3.0163 O.2     
  31 N31            6.5143    10.8913    -1.9977 N.am    
  32 S32            3.8530    14.4064    -4.6517 S.3     
  33 Cl33          -1.8644    -0.3562     1.1747 Cl      
  34 C34            4.4125    15.7630    -5.7181 C.3     
  35 F35            5.1595    15.2433    -6.7806 F       
  36 F36            3.3019    16.4495    -6.2207 F       
  37 F37            5.2075    16.6425    -4.9754 F       
  38 H38           -1.1860     2.4033     1.0392 H       
  39 H39            0.7757    -1.3840     0.9022 H       
  40 H40            0.9761     3.5483     0.7791 H       
  41 H41            3.6293    -1.0562     0.5775 H       
  42 H42            3.1535     4.1504     0.5208 H       
  43 H43            4.4471     3.5855     2.5440 H       
  44 H44            5.7626     2.9319     1.5374 H       
  45 H45            4.7638     5.8166     1.5215 H       
  46 H46            6.2781     5.2428     2.2599 H       
  47 H47            4.5022     5.7642    -0.8756 H       
  48 H48            5.8243     5.1519    -1.8977 H       
  49 H49            5.4876     2.8768    -0.9819 H       
  50 H50            3.9830     3.4925    -1.7084 H       
  51 H51            7.6237     6.5978     0.8992 H       
  52 H52            8.4479     5.7013    -1.2712 H       
  53 H53            7.0543     6.4416    -2.0959 H       
  54 H54            9.2437     7.9038    -0.5488 H       
  55 H55            8.9845     7.9330    -2.3121 H       
  56 H56            7.2579     9.1062     0.8968 H       
  57 H57            5.9371     9.7783    -0.0936 H       
  58 H58            5.2560     7.5305    -0.7867 H       
  59 H59            5.3403     7.5829     0.9910 H       
  60 H60            4.3981    12.1695    -2.9324 H       
  61 H61            6.5977    15.0401    -5.2164 H       
  62 H62            8.7069    14.0123    -4.4778 H       
  63 H63            8.6721    12.0726    -2.9657 H       
  64 H64            5.8152    10.8065    -1.3306 H       
@<TRIPOS>BOND
   1    1    2 ar
   2    1    6 ar
   3    1   38 1
   4    2    3 ar
   5    2   33 1
   6    3    4 ar
   7    3   39 1
   8    4    5 ar
   9    4    7 1
  10    5    6 ar
  11    5    9 1
  12    6   40 1
  13    7    8 am
  14    7   41 1
  15    8    9 am
  16    8   10 2
  17    9   11 1
  18   11   12 1
  19   11   16 1
  20   11   42 1
  21   12   13 1
  22   12   43 1
  23   12   44 1
  24   13   14 1
  25   13   45 1
  26   13   46 1
  27   14   15 1
  28   14   17 1
  29   15   16 1
  30   15   47 1
  31   15   48 1
  32   16   49 1
  33   16   50 1
  34   17   18 1
  35   17   22 1
  36   17   51 1
  37   18   19 1
  38   18   52 1
  39   18   53 1
  40   19   20 1
  41   19   54 1
  42   19   55 1
  43   20   21 1
  44   20   23 am
  45   21   22 1
  46   21   56 1
  47   21   57 1
  48   22   58 1
  49   22   59 1
  50   23   30 2
  51   23   31 am
  52   24   25 ar
  53   24   31 1
  54   24   29 ar
  55   25   26 ar
  56   25   60 1
  57   26   27 ar
  58   26   32 1
  59   27   28 ar
  60   27   61 1
  61   28   29 ar
  62   28   62 1
  63   29   63 1
  64   31   64 1
  65   32   34 1
  66   34   35 1
  67   34   36 1
  68   34   37 1

#	End of record

