#	Name: ASD01883708
#	Creating user name:	WinNT
#	Creation time:	15. 06. 2019 19:46

#	Modifying user name:	WinNT
#	Modification time:	15. 06. 2019 19:46

#	Program:	/corina/corina34_cracker 3.40 0067  02.08.2006

@<TRIPOS>MOLECULE
ASD01883708
  50   53    0    0    0
SMALL
NO_CHARGES


@<TRIPOS>ATOM
   1 C1            -0.0167     1.3792     0.0096 C.2     
   2 C2             0.0021    -0.0041     0.0020 C.2     
   3 C3            -1.2232    -0.7132     0.0099 C.2     
   4 C4            -2.3914    -0.0450     0.0246 C.2     
   5 N5            -2.4195     1.3213     0.0322 N.pl3   
   6 C6            -1.2556     2.0465     0.0309 C.2     
   7 C7            -3.4509     2.2222     0.0468 C.2     
   8 C8            -2.9029     3.4572     0.0482 C.2     
   9 N9            -1.5738     3.3345     0.0394 N.2     
  10 Cl10           1.4676     2.2795     0.0003 Cl      
  11 C11           -4.9223     1.8967     0.0586 C.3     
  12 C12           -5.4607     1.9174    -1.3733 C.3     
  13 C13            1.2901    -0.7352    -0.0147 C.ar    
  14 C14            1.6565    -1.5297     1.0718 C.ar    
  15 C15            2.8559    -2.2094     1.0543 C.ar    
  16 C16            3.7002    -2.1038    -0.0446 C.ar    
  17 C17            3.3377    -1.3117    -1.1299 C.ar    
  18 C18            2.1365    -0.6349    -1.1197 C.ar    
  19 F19           -4.7791     0.9675    -2.1416 F       
  20 F20           -6.8266     1.6153    -1.3624 F       
  21 F21           -5.2686     3.1885    -1.9254 F       
  22 N22            4.9140    -2.7932    -0.0596 N.pl3   
  23 C23            5.2969    -3.6270     1.0825 C.3     
  24 C24            6.8208    -3.7541     1.1330 C.3     
  25 C25            7.2208    -4.6249     2.3257 C.3     
  26 C26            6.5980    -6.0142     2.1744 C.3     
  27 C27            5.0741    -5.8872     2.1239 C.3     
  28 C28            4.6741    -5.0163     0.9312 C.3     
  29 Cl29           4.3950    -1.1817    -2.5006 Cl      
  30 O30            6.9715    -6.8275     3.2884 O.3     
  31 H31           -1.2204    -1.7932     0.0037 H       
  32 H32           -3.3199    -0.5965     0.0301 H       
  33 H33           -3.4493     4.3887     0.0578 H       
  34 H34           -5.0719     0.9064     0.4888 H       
  35 H35           -5.4533     2.6369     0.6572 H       
  36 H36            1.0013    -1.6120     1.9263 H       
  37 H37            3.1398    -2.8242     1.8956 H       
  38 H38            1.8550    -0.0204    -1.9621 H       
  39 H39            5.5039    -2.7201    -0.8261 H       
  40 H40            4.9399    -3.1672     2.0040 H       
  41 H41            7.1778    -4.2139     0.2115 H       
  42 H42            7.2645    -2.7643     1.2408 H       
  43 H43            8.3064    -4.7154     2.3617 H       
  44 H44            6.8638    -4.1651     3.2472 H       
  45 H45            6.9550    -6.4740     1.2529 H       
  46 H46            4.6304    -6.8769     2.0161 H       
  47 H47            4.7171    -5.4273     3.0454 H       
  48 H48            3.5885    -4.9258     0.8952 H       
  49 H49            5.0311    -5.4762     0.0097 H       
  50 H50            6.6112    -7.7244     3.2589 H       
@<TRIPOS>BOND
   1    1    2 2
   2    1   10 1
   3    1    6 1
   4    2    3 1
   5    2   13 1
   6    3    4 2
   7    3   31 1
   8    4    5 1
   9    4   32 1
  10    5    6 1
  11    5    7 1
  12    6    9 2
  13    7    8 2
  14    7   11 1
  15    8    9 1
  16    8   33 1
  17   11   12 1
  18   11   34 1
  19   11   35 1
  20   12   19 1
  21   12   20 1
  22   12   21 1
  23   13   14 ar
  24   13   18 ar
  25   14   15 ar
  26   14   36 1
  27   15   16 ar
  28   15   37 1
  29   16   17 ar
  30   16   22 1
  31   17   18 ar
  32   17   29 1
  33   18   38 1
  34   22   23 1
  35   22   39 1
  36   23   24 1
  37   23   28 1
  38   23   40 1
  39   24   25 1
  40   24   41 1
  41   24   42 1
  42   25   26 1
  43   25   43 1
  44   25   44 1
  45   26   27 1
  46   26   30 1
  47   26   45 1
  48   27   28 1
  49   27   46 1
  50   27   47 1
  51   28   48 1
  52   28   49 1
  53   30   50 1

#	End of record

