#	Name: ASD02500138
#	Creating user name:	WinNT
#	Creation time:	15. 06. 2019 20:22

#	Modifying user name:	WinNT
#	Modification time:	15. 06. 2019 20:22

#	Program:	/corina/corina34_cracker 3.40 0067  02.08.2006

@<TRIPOS>MOLECULE
ASD02500138
  63   67    0    0    0
SMALL
NO_CHARGES


@<TRIPOS>ATOM
   1 N1             1.8329     3.9253    -0.8321 N.ar    
   2 C2             2.7815     3.6108     0.0162 C.ar    
   3 C3             3.9100     2.8949    -0.3781 C.ar    
   4 C4             4.0478     2.5018    -1.6787 C.ar    
   5 C5             3.0269     2.8409    -2.5868 C.ar    
   6 C6             3.0992     2.4717    -3.9394 C.ar    
   7 C7             2.0911     2.8190    -4.7865 C.ar    
   8 C8             0.9883     3.5368    -4.3289 C.ar    
   9 C9             0.8859     3.9110    -3.0243 C.ar    
  10 C10            1.9061     3.5711    -2.1191 C.ar    
  11 S11           -0.5198     4.8189    -2.4724 S.o2    
  12 O12           -0.0187     5.9221    -1.7300 O.2     
  13 O13           -1.3720     4.9638    -3.6002 O.2     
  14 N14           -1.3307     3.8590    -1.3937 N.am    
  15 C15           -1.8623     2.6429    -1.8082 C.ar    
  16 C16           -1.6621     1.4993    -1.0398 C.ar    
  17 C17           -2.1870     0.2943    -1.4473 C.ar    
  18 C18           -2.9217     0.2192    -2.6342 C.ar    
  19 C19           -3.1209     1.3692    -3.4036 C.ar    
  20 C20           -2.5984     2.5725    -2.9878 C.ar    
  21 C21           -3.4853    -1.0712    -3.0742 C.2     
  22 O22           -4.6083    -1.1176    -3.5382 O.2     
  23 N23           -2.7555    -2.1987    -2.9619 N.am    
  24 C24           -3.2711    -3.4773    -3.4710 C.3     
  25 C25           -2.2475    -4.0629    -4.4516 C.3     
  26 N26           -0.9216    -4.0357    -3.8183 N.am    
  27 C27           -0.4060    -2.7571    -3.3092 C.3     
  28 C28           -1.4272    -2.1704    -2.3337 C.3     
  29 C29           -0.1917    -5.1631    -3.7060 C.2     
  30 C30            1.1663    -5.1198    -3.0542 C.3     
  31 C31            1.7774    -6.5225    -3.0551 C.3     
  32 O32           -0.6279    -6.2125    -4.1296 O.2     
  33 C33            3.1355    -6.4792    -2.4033 C.2     
  34 C34            3.3700    -6.6574    -1.1023 C.2     
  35 C35            4.7014    -6.5733    -0.7328 C.2     
  36 C36            5.5480    -6.3269    -1.7337 C.2     
  37 S37            4.6544    -6.1935    -3.2428 S.3     
  38 H38            2.6860     3.9151     1.0480 H       
  39 H39            4.6751     2.6513     0.3442 H       
  40 H40            4.9160     1.9466    -2.0017 H       
  41 H41            3.9494     1.9158    -4.3060 H       
  42 H42            2.1475     2.5346    -5.8268 H       
  43 H43            0.2021     3.8010    -5.0206 H       
  44 H44           -1.4348     4.1452    -0.4728 H       
  45 H45           -1.0941     1.5580    -0.1231 H       
  46 H46           -2.0311    -0.5926    -0.8510 H       
  47 H47           -3.6878     1.3143    -4.3212 H       
  48 H48           -2.7559     3.4623    -3.5792 H       
  49 H49           -3.4196    -4.1683    -2.6412 H       
  50 H50           -4.2174    -3.3112    -3.9858 H       
  51 H51           -2.5174    -5.0914    -4.6912 H       
  52 H52           -2.2301    -3.4649    -5.3627 H       
  53 H53            0.5403    -2.9232    -2.7944 H       
  54 H54           -0.2574    -2.0661    -4.1390 H       
  55 H55           -1.1560    -1.1414    -2.0975 H       
  56 H56           -1.4414    -2.7662    -1.4210 H       
  57 H57            1.8141    -4.4410    -3.6089 H       
  58 H58            1.0655    -4.7681    -2.0275 H       
  59 H59            1.1296    -7.2014    -2.5004 H       
  60 H60            1.8782    -6.8743    -4.0818 H       
  61 H61            2.5809    -6.8522    -0.3911 H       
  62 H62            5.0297    -6.6976     0.2885 H       
  63 H63            6.6188    -6.2280    -1.6334 H       
@<TRIPOS>BOND
   1    1    2 ar
   2    1   10 ar
   3    2    3 ar
   4    2   38 1
   5    3    4 ar
   6    3   39 1
   7    4    5 ar
   8    4   40 1
   9    5    6 ar
  10    5   10 ar
  11    6    7 ar
  12    6   41 1
  13    7    8 ar
  14    7   42 1
  15    8    9 ar
  16    8   43 1
  17    9   10 ar
  18    9   11 1
  19   11   12 2
  20   11   13 2
  21   11   14 am
  22   14   15 1
  23   14   44 1
  24   15   16 ar
  25   15   20 ar
  26   16   17 ar
  27   16   45 1
  28   17   18 ar
  29   17   46 1
  30   18   19 ar
  31   18   21 1
  32   19   20 ar
  33   19   47 1
  34   20   48 1
  35   21   22 2
  36   21   23 am
  37   23   24 1
  38   23   28 1
  39   24   25 1
  40   24   49 1
  41   24   50 1
  42   25   26 1
  43   25   51 1
  44   25   52 1
  45   26   27 1
  46   26   29 am
  47   27   28 1
  48   27   53 1
  49   27   54 1
  50   28   55 1
  51   28   56 1
  52   29   30 1
  53   29   32 2
  54   30   31 1
  55   30   57 1
  56   30   58 1
  57   31   33 1
  58   31   59 1
  59   31   60 1
  60   33   34 2
  61   33   37 1
  62   34   35 1
  63   34   61 1
  64   35   36 2
  65   35   62 1
  66   36   37 1
  67   36   63 1

#	End of record

