#	Name: ASD01917879
#	Creating user name:	WinNT
#	Creation time:	15. 06. 2019 20:10

#	Modifying user name:	WinNT
#	Modification time:	15. 06. 2019 20:10

#	Program:	/corina/corina34_cracker 3.40 0067  02.08.2006

@<TRIPOS>MOLECULE
ASD01917879
  44   47    0    0    0
SMALL
NO_CHARGES


@<TRIPOS>ATOM
   1 C1            -0.0161     1.3227     0.0032 C.2     
   2 C2            -0.0104    -0.0234     0.0115 C.2     
   3 C3            -1.2828    -0.8565     0.0259 C.3     
   4 C4            -2.4472     0.0149     0.5025 C.3     
   5 N5            -2.4124     1.2988    -0.2138 N.am    
   6 C6            -1.2579     2.1842     0.0190 C.3     
   7 C7            -3.4039     1.6536    -1.0549 C.2     
   8 O8            -4.2918     0.8651    -1.3147 O.2     
   9 S9             1.6468     1.8927    -0.0211 S.3     
  10 C10            2.2079     0.2782    -0.0134 C.2     
  11 N11            1.2124    -0.5365     0.0041 N.2     
  12 C12            3.6581    -0.1314    -0.0259 C.3     
  13 O13            4.1018    -0.2719    -1.3770 O.3     
  14 C14            5.3942    -0.6390    -1.5659 C.ar    
  15 N15            6.1754    -0.8477    -0.5194 N.ar    
  16 C16            7.4380    -1.2058    -0.6583 C.ar    
  17 C17            7.9915    -1.3758    -1.9114 C.ar    
  18 C18            7.2045    -1.1662    -3.0357 C.ar    
  19 C19            5.8828    -0.7974    -2.8567 C.ar    
  20 C20           -3.4117     3.0018    -1.6616 C.ar    
  21 C21           -3.8846     3.1930    -2.9652 C.ar    
  22 C22           -3.8710     4.4750    -3.4864 C.ar    
  23 C23           -3.3952     5.5163    -2.7103 C.ar    
  24 N24           -2.9549     5.3062    -1.4843 N.ar    
  25 C25           -2.9530     4.1063    -0.9422 C.ar    
  26 C26           -3.3787     6.9136    -3.2744 C.3     
  27 H27           -1.4897    -1.2231    -0.9795 H       
  28 H28           -1.1580    -1.7007     0.7041 H       
  29 H29           -3.3899    -0.4920     0.2963 H       
  30 H30           -2.3546     0.1927     1.5739 H       
  31 H31           -1.3573     2.6755     0.9869 H       
  32 H32           -1.1987     2.9315    -0.7723 H       
  33 H33            4.2552     0.6305     0.4752 H       
  34 H34            3.7716    -1.0824     0.4945 H       
  35 H35            8.0459    -1.3676     0.2196 H       
  36 H36            9.0259    -1.6683    -2.0160 H       
  37 H37            7.6132    -1.2924    -4.0273 H       
  38 H38            5.2421    -0.6263    -3.7091 H       
  39 H39           -4.2504     2.3614    -3.5492 H       
  40 H40           -4.2278     4.6603    -4.4888 H       
  41 H41           -2.5849     3.9742     0.0645 H       
  42 H42           -4.3214     7.4097    -3.0436 H       
  43 H43           -2.5553     7.4743    -2.8322 H       
  44 H44           -3.2476     6.8675    -4.3555 H       
@<TRIPOS>BOND
   1    1    2 2
   2    1    9 1
   3    1    6 1
   4    2    3 1
   5    2   11 1
   6    3    4 1
   7    3   27 1
   8    3   28 1
   9    4    5 1
  10    4   29 1
  11    4   30 1
  12    5    6 1
  13    5    7 am
  14    6   31 1
  15    6   32 1
  16    7    8 2
  17    7   20 1
  18    9   10 1
  19   10   11 2
  20   10   12 1
  21   12   13 1
  22   12   33 1
  23   12   34 1
  24   13   14 1
  25   14   15 ar
  26   14   19 ar
  27   15   16 ar
  28   16   17 ar
  29   16   35 1
  30   17   18 ar
  31   17   36 1
  32   18   19 ar
  33   18   37 1
  34   19   38 1
  35   20   21 ar
  36   20   25 ar
  37   21   22 ar
  38   21   39 1
  39   22   23 ar
  40   22   40 1
  41   23   24 ar
  42   23   26 1
  43   24   25 ar
  44   25   41 1
  45   26   42 1
  46   26   43 1
  47   26   44 1

#	End of record

