#	Name: ASD01916126
#	Creating user name:	WinNT
#	Creation time:	15. 06. 2019 20:06

#	Modifying user name:	WinNT
#	Modification time:	15. 06. 2019 20:06

#	Program:	/corina/corina34_cracker 3.40 0067  02.08.2006

@<TRIPOS>MOLECULE
ASD01916126
  44   47    0    0    0
SMALL
NO_CHARGES


@<TRIPOS>ATOM
   1 C1            -1.6322     0.1080     3.5885 C.ar    
   2 C2            -1.4093    -1.1695     3.1124 C.ar    
   3 C3            -0.1112    -1.6304     2.9475 C.ar    
   4 C4             0.9600    -0.8067     3.2614 C.ar    
   5 C5             0.7318     0.4700     3.7372 C.ar    
   6 C6            -0.5628     0.9270     3.9007 C.ar    
   7 O7             0.1106    -2.8869     2.4797 O.3     
   8 C8             1.4727    -3.2943     2.3351 C.3     
   9 C9             1.5218    -4.7055     1.8086 C.2     
  10 C10            0.4141    -5.5067     1.5034 C.2     
  11 N11            2.6078    -5.3919     1.5522 N.2     
  12 N12            2.2267    -6.6500     1.0781 N.pl3   
  13 C13            0.8743    -6.6931     1.0637 C.2     
  14 C14            3.1054    -7.7437     0.6546 C.3     
  15 C15            2.3145    -9.0564     0.6553 C.3     
  16 N16            1.0154    -8.8396     0.0006 N.am    
  17 C17            0.0717    -7.8954     0.6259 C.3     
  18 C18            0.6971    -9.4825    -1.1404 C.2     
  19 C19           -0.6566    -9.3421    -1.7142 C.ar    
  20 O20            1.5242   -10.1780    -1.6973 O.2     
  21 C21           -1.7786    -9.3880    -0.8841 C.ar    
  22 C22           -3.0402    -9.2559    -1.4248 C.ar    
  23 C23           -3.1991    -9.0783    -2.7882 C.ar    
  24 C24           -2.0939    -9.0318    -3.6203 C.ar    
  25 C25           -0.8204    -9.1568    -3.0902 C.ar    
  26 F26            0.2590    -9.1111    -3.9013 F       
  27 F27           -2.2573    -8.8586    -4.9501 F       
  28 H28           -2.6425     0.4689     3.7128 H       
  29 H29           -2.2449    -1.8090     2.8690 H       
  30 H30            1.9715    -1.1633     3.1342 H       
  31 H31            1.5654     1.1115     3.9821 H       
  32 H32           -0.7391     1.9254     4.2728 H       
  33 H33            1.9790    -2.6281     1.6366 H       
  34 H34            1.9698    -3.2506     3.3041 H       
  35 H35           -0.6234    -5.2234     1.6029 H       
  36 H36            3.4775    -7.5434    -0.3502 H       
  37 H37            3.9450    -7.8242     1.3450 H       
  38 H38            2.8733    -9.8184     0.1121 H       
  39 H39            2.1543    -9.3843     1.6824 H       
  40 H40           -0.3999    -8.3597     1.4920 H       
  41 H41           -0.6878    -7.5956    -0.0962 H       
  42 H42           -1.6584    -9.5272     0.1801 H       
  43 H43           -3.9074    -9.2916    -0.7821 H       
  44 H44           -4.1902    -8.9759    -3.2049 H       
@<TRIPOS>BOND
   1    1    2 ar
   2    1    6 ar
   3    1   28 1
   4    2    3 ar
   5    2   29 1
   6    3    4 ar
   7    3    7 1
   8    4    5 ar
   9    4   30 1
  10    5    6 ar
  11    5   31 1
  12    6   32 1
  13    7    8 1
  14    8    9 1
  15    8   33 1
  16    8   34 1
  17    9   10 1
  18    9   11 2
  19   10   13 2
  20   10   35 1
  21   11   12 1
  22   12   13 1
  23   12   14 1
  24   13   17 1
  25   14   15 1
  26   14   36 1
  27   14   37 1
  28   15   16 1
  29   15   38 1
  30   15   39 1
  31   16   17 1
  32   16   18 am
  33   17   40 1
  34   17   41 1
  35   18   19 1
  36   18   20 2
  37   19   21 ar
  38   19   25 ar
  39   21   22 ar
  40   21   42 1
  41   22   23 ar
  42   22   43 1
  43   23   24 ar
  44   23   44 1
  45   24   25 ar
  46   24   27 1
  47   25   26 1

#	End of record

