#	Name: ASD01883991
#	Creating user name:	WinNT
#	Creation time:	15. 06. 2019 19:47

#	Modifying user name:	WinNT
#	Modification time:	15. 06. 2019 19:47

#	Program:	/corina/corina34_cracker 3.40 0067  02.08.2006

@<TRIPOS>MOLECULE
ASD01883991
  46   48    0    0    0
SMALL
NO_CHARGES


@<TRIPOS>ATOM
   1 C1            -0.0187     1.5258     0.0104 C.3     
   2 C2             0.0021    -0.0041     0.0020 C.3     
   3 C3            -1.4333    -0.5336     0.0129 C.3     
   4 C4            -1.4126    -2.0635     0.0045 C.3     
   5 N5            -2.7870    -2.5706     0.0149 N.am    
   6 C6            -3.4409    -2.8167     1.2951 C.3     
   7 C7            -4.9069    -2.3833     1.2959 C.3     
   8 N8            -5.5556    -2.8747     0.0804 N.pl3   
   9 C9            -4.8638    -3.0584    -1.0991 C.2     
  10 N10           -5.6927    -3.4784    -2.0140 N.2     
  11 C11           -6.9111    -3.5950    -1.4882 C.2     
  12 Cl12          -8.3355    -4.1251    -2.3270 Cl      
  13 C13           -6.8446    -3.2204    -0.1557 C.2     
  14 C14           -7.9579    -3.2019     0.8150 C.ar    
  15 C15           -7.7742    -3.7149     2.1010 C.ar    
  16 C16           -8.8153    -3.6953     3.0038 C.ar    
  17 C17          -10.0461    -3.1668     2.6361 C.ar    
  18 O18          -11.0697    -3.1494     3.5289 O.3     
  19 C19          -12.3083    -2.5916     3.0852 C.3     
  20 C20          -13.3332    -2.6586     4.2191 C.3     
  21 C21          -10.2330    -2.6556     1.3582 C.ar    
  22 C22           -9.1954    -2.6662     0.4512 C.ar    
  23 C23           -3.4144    -2.7915    -1.1638 C.2     
  24 O24           -2.8141    -2.7749    -2.2217 O.2     
  25 H25            1.0039     1.9031     0.0027 H       
  26 H26           -0.5459     1.8868    -0.8726 H       
  27 H27           -0.5289     1.8773     0.9072 H       
  28 H28            0.5123    -0.3556    -0.8948 H       
  29 H29            0.5293    -0.3651     0.8851 H       
  30 H30           -1.9435    -0.1821     0.9097 H       
  31 H31           -1.9605    -0.1726    -0.8702 H       
  32 H32           -0.9024    -2.4150    -0.8923 H       
  33 H33           -0.8854    -2.4246     0.8875 H       
  34 H34           -3.3879    -3.8822     1.5191 H       
  35 H35           -2.9105    -2.2680     2.0733 H       
  36 H36           -5.4088    -2.7987     2.1698 H       
  37 H37           -4.9648    -1.2953     1.3249 H       
  38 H38           -6.8178    -4.1267     2.3875 H       
  39 H39           -8.6741    -4.0918     3.9984 H       
  40 H40          -12.1553    -1.5522     2.7947 H       
  41 H41          -12.6758    -3.1577     2.2293 H       
  42 H42          -14.2779    -2.2332     3.8806 H       
  43 H43          -13.4862    -3.6980     4.5096 H       
  44 H44          -12.9657    -2.0925     5.0750 H       
  45 H45          -11.1915    -2.2456     1.0763 H       
  46 H46           -9.3402    -2.2644    -0.5408 H       
@<TRIPOS>BOND
   1    1    2 1
   2    1   25 1
   3    1   26 1
   4    1   27 1
   5    2    3 1
   6    2   28 1
   7    2   29 1
   8    3    4 1
   9    3   30 1
  10    3   31 1
  11    4    5 1
  12    4   32 1
  13    4   33 1
  14    5   23 am
  15    5    6 1
  16    6    7 1
  17    6   34 1
  18    6   35 1
  19    7    8 1
  20    7   36 1
  21    7   37 1
  22    8   13 1
  23    8    9 1
  24    9   10 2
  25    9   23 1
  26   10   11 1
  27   11   12 1
  28   11   13 2
  29   13   14 1
  30   14   22 ar
  31   14   15 ar
  32   15   16 ar
  33   15   38 1
  34   16   17 ar
  35   16   39 1
  36   17   18 1
  37   17   21 ar
  38   18   19 1
  39   19   20 1
  40   19   40 1
  41   19   41 1
  42   20   42 1
  43   20   43 1
  44   20   44 1
  45   21   22 ar
  46   21   45 1
  47   22   46 1
  48   23   24 2

#	End of record

