#	Name: ASD02038559
#	Creating user name:	WinNT
#	Creation time:	15. 06. 2019 20:17

#	Modifying user name:	WinNT
#	Modification time:	15. 06. 2019 20:17

#	Program:	/corina/corina34_cracker 3.40 0067  02.08.2006

@<TRIPOS>MOLECULE
ASD02038559
  55   58    0    0    0
SMALL
NO_CHARGES


@<TRIPOS>ATOM
   1 C1             0.6609    -0.0190     1.3142 C.3     
   2 N2             0.0020    -0.0042     0.0007 N.3     
   3 C3            -1.3592    -0.5495     0.0884 C.3     
   4 C4            -0.0095     1.3524    -0.5642 C.3     
   5 C5             1.4293     1.8526    -0.7125 C.3     
   6 N6             2.0882     1.8378     0.6010 N.3     
   7 C7             3.3831     2.3565     0.5176 C.ar    
   8 C8             4.1776     2.4305     1.6545 C.ar    
   9 C9             5.4569     2.9437     1.5692 C.ar    
  10 C10            5.9475     3.3840     0.3525 C.ar    
  11 C11            5.1580     3.3119    -0.7818 C.ar    
  12 C12            3.8801     2.7939    -0.7035 C.ar    
  13 C13            2.0998     0.4812     1.1659 C.3     
  14 Cl14           7.5561     4.0285     0.2489 Cl      
  15 C15           -1.2915    -2.0737     0.2029 C.3     
  16 C16           -2.6997    -2.6320     0.4179 C.3     
  17 O17           -2.6245    -4.0414     0.6410 O.3     
  18 C18           -3.7966    -4.6963     0.8509 C.ar    
  19 C19           -4.9943    -3.9958     0.8423 C.ar    
  20 C20           -6.1874    -4.6603     1.0559 C.ar    
  21 C21           -6.1909    -6.0232     1.2782 C.ar    
  22 C22           -4.9946    -6.7300     1.2872 C.ar    
  23 C23           -3.7967    -6.0656     1.0682 C.ar    
  24 C24           -7.4911    -6.7481     1.5110 C.3     
  25 C25           -7.4073    -8.1526     0.9123 C.3     
  26 C26           -6.1327    -8.8214     1.3517 C.2     
  27 N27           -5.0017    -8.1102     1.5117 N.am    
  28 O28           -6.1249   -10.0155     1.5641 O.2     
  29 O29           -0.7418    -2.6178    -0.9987 O.3     
  30 H30            0.1187     0.6315     2.0004 H       
  31 H31            0.6681    -1.0362     1.7060 H       
  32 H32           -1.8584    -0.1409     0.9670 H       
  33 H33           -1.9182    -0.2769    -0.8068 H       
  34 H34           -0.4911     1.3352    -1.5419 H       
  35 H35           -0.5593     2.0186     0.1007 H       
  36 H36            1.9716     1.2021    -1.3987 H       
  37 H37            1.4222     2.8698    -1.1043 H       
  38 H38            3.7951     2.0874     2.6044 H       
  39 H39            6.0750     3.0018     2.4530 H       
  40 H40            5.5431     3.6569    -1.7300 H       
  41 H41            3.2646     2.7375    -1.5890 H       
  42 H42            2.5814     0.4984     2.1436 H       
  43 H43            2.6496    -0.1849     0.5010 H       
  44 H44           -0.6595    -2.3469     1.0479 H       
  45 H45           -3.1530    -2.1507     1.2846 H       
  46 H46           -3.3072    -2.4359    -0.4656 H       
  47 H47           -4.9943    -2.9298     0.6688 H       
  48 H48           -7.1182    -4.1127     1.0493 H       
  49 H49           -2.8654    -6.6126     1.0750 H       
  50 H50           -7.6799    -6.8205     2.5821 H       
  51 H51           -8.3036    -6.1985     1.0355 H       
  52 H52           -8.2602    -8.7415     1.2497 H       
  53 H53           -7.4239    -8.0841    -0.1754 H       
  54 H54           -4.1858    -8.5579     1.7850 H       
  55 H55           -1.2540    -2.4138    -1.7931 H       
@<TRIPOS>BOND
   1    1    2 1
   2    1   13 1
   3    1   30 1
   4    1   31 1
   5    2    3 1
   6    2    4 1
   7    3   15 1
   8    3   32 1
   9    3   33 1
  10    4    5 1
  11    4   34 1
  12    4   35 1
  13    5    6 1
  14    5   36 1
  15    5   37 1
  16    6    7 1
  17    6   13 1
  18    7    8 ar
  19    7   12 ar
  20    8    9 ar
  21    8   38 1
  22    9   10 ar
  23    9   39 1
  24   10   11 ar
  25   10   14 1
  26   11   12 ar
  27   11   40 1
  28   12   41 1
  29   13   42 1
  30   13   43 1
  31   15   16 1
  32   15   29 1
  33   15   44 1
  34   16   17 1
  35   16   45 1
  36   16   46 1
  37   17   18 1
  38   18   19 ar
  39   18   23 ar
  40   19   20 ar
  41   19   47 1
  42   20   21 ar
  43   20   48 1
  44   21   22 ar
  45   21   24 1
  46   22   23 ar
  47   22   27 1
  48   23   49 1
  49   24   25 1
  50   24   50 1
  51   24   51 1
  52   25   26 1
  53   25   52 1
  54   25   53 1
  55   26   27 am
  56   26   28 2
  57   27   54 1
  58   29   55 1

#	End of record

