#	Name: ASD05143079
#	Creating user name:	WinNT
#	Creation time:	15. 06. 2019 20:57

#	Modifying user name:	WinNT
#	Modification time:	15. 06. 2019 20:57

#	Program:	/corina/corina34_cracker 3.40 0067  02.08.2006

@<TRIPOS>MOLECULE
ASD05143079
 144  148    0    0    0
SMALL
NO_CHARGES


@<TRIPOS>ATOM
   1 C1             4.1952     2.2437     2.8405 C.2     
   2 C2             5.4542     1.6059     3.3691 C.3     
   3 N3             4.2689     3.3664     2.0985 N.am    
   4 O4             3.1162     1.7438     3.0785 O.2     
   5 C5             3.0450     3.9864     1.5846 C.3     
   6 C6             2.3111     2.9936     0.6809 C.3     
   7 C7             2.1537     4.3698     2.7377 C.2     
   8 C8             3.1759     2.6816    -0.5421 C.3     
   9 C9             2.4419     1.6888    -1.4457 C.3     
  10 N10            3.2700     1.3900    -2.6168 N.pl3   
  11 C11            2.8148     0.5162    -3.5757 C.2     
  12 N12            3.5918     0.2358    -4.6747 N.pl3   
  13 N13            1.6465    -0.0463    -3.4429 N.2     
  14 O14            2.2604     3.7990     3.8025 O.2     
  15 N15            1.2381     5.3471     2.5858 N.am    
  16 C16            0.3017     5.6444     3.6656 C.3     
  17 C17            0.9177     6.7188     4.5703 C.3     
  18 C18            0.9584     6.2132     6.0134 C.3     
  19 C19            1.6661     7.2224     6.8792 C.2     
  20 N20            1.1632     7.4969     8.1201 N.am    
  21 C21            1.9035     8.5241     8.8879 C.3     
  22 C22            0.9477     9.1769     9.8880 C.3     
  23 C23            0.4697    10.5201     9.3342 C.3     
  24 C24           -0.6776    11.0553    10.1952 C.3     
  25 N25           -1.4504    12.0365     9.4111 N.am    
  26 C26           -0.1115    11.7328    11.4195 C.2     
  27 N27            0.2910    10.9945    12.4728 N.am    
  28 O28           -0.0190    12.9415    11.4554 O.2     
  29 C29           -2.7756    11.7895     9.2188 C.2     
  30 O30           -3.2700    10.7365     9.5572 O.2     
  31 C31           -3.6216    12.8662     8.5885 C.3     
  32 N32           -4.7269    12.2487     7.8214 N.am    
  33 C33           -4.2043    13.7600     9.6883 C.3     
  34 C34           -4.4404    11.9221     6.5279 C.2     
  35 O35           -3.2914    11.9512     6.1319 O.2     
  36 C36           -5.5561    11.5652     5.5840 C.3     
  37 N37           -5.0046    10.9722     4.3514 N.am    
  38 C38           -6.5298    10.5894     6.2403 C.3     
  39 C39           -4.1478     9.9341     4.4936 C.2     
  40 O40           -3.9021     9.4607     5.5845 O.2     
  41 C41           -3.4409     9.3421     3.2883 C.3     
  42 C42           -4.9494    14.9092     9.0595 C.2     
  43 C43           -6.3405    14.8988     8.6007 C.ar    
  44 C44           -6.5911    16.1856     8.0905 C.ar    
  45 N45           -5.4309    16.9128     8.2348 N.pl3   
  46 C46           -4.4660    16.1381     8.8189 C.2     
  47 C47           -7.3501    13.9344     8.5851 C.ar    
  48 C48           -8.5781    14.2461     8.0737 C.ar    
  49 C49           -8.8303    15.5145     7.5686 C.ar    
  50 C50           -7.8490    16.4812     7.5749 C.ar    
  51 N51           -3.9248     7.9586     3.1509 N.am    
  52 C52           -1.9384     9.4065     3.5657 C.3     
  53 C53           -1.4935    10.8461     3.5908 C.ar    
  54 C54           -1.2902    11.4852     4.7997 C.ar    
  55 C55           -0.8817    12.8052     4.8240 C.ar    
  56 C56           -0.6761    13.4876     3.6369 C.ar    
  57 C57           -0.8801    12.8465     2.4268 C.ar    
  58 C58           -1.2835    11.5249     2.4050 C.ar    
  59 C59           -1.0195     6.1357     3.1495 C.2     
  60 O60           -1.8895     6.3799     3.9796 O.2     
  61 C61           -7.7147    10.3442     5.3040 C.3     
  62 C62           -8.6905     9.3663     5.9617 C.3     
  63 N63           -9.8251     9.1315     5.0651 N.pl3   
  64 C64          -10.8369     8.2816     5.4449 C.2     
  65 N65          -10.7839     7.6522     6.6661 N.pl3   
  66 N66          -11.8463     8.0727     4.6473 N.2     
  67 N67           -1.3226     6.2956     1.8509 N.am    
  68 C68           -2.3200     7.2348     1.3238 C.3     
  69 C69           -3.5832     7.1522     2.1249 C.2     
  70 O70           -4.3836     6.2698     1.8189 O.2     
  71 O71            2.6659     7.7806     6.4806 O.2     
  72 C72           -1.8127     5.5747    -0.4057 C.3     
  73 C73           -2.6089     6.8621    -0.1418 C.3     
  74 C74           -0.7732     5.5403     0.7241 C.3     
  75 F75           -0.2773    14.7782     3.6595 F       
  76 H76            5.9770     2.3132     4.0129 H       
  77 H77            5.1972     0.7147     3.9417 H       
  78 H78            6.0988     1.3286     2.5351 H       
  79 H79            5.1322     3.7640     1.9048 H       
  80 H80            3.3020     4.8776     1.0120 H       
  81 H81            2.1175     2.0740     1.2332 H       
  82 H82            1.3657     3.4282     0.3561 H       
  83 H83            3.3694     3.6011    -1.0943 H       
  84 H84            4.1212     2.2470    -0.2173 H       
  85 H85            2.2483     0.7692    -0.8935 H       
  86 H86            1.4966     2.1234    -1.7706 H       
  87 H87            4.1394     1.8087    -2.7156 H       
  88 H88            4.4612     0.6545    -4.7735 H       
  89 H89            3.2707    -0.3806    -5.3512 H       
  90 H90            1.3254    -0.6628    -4.1195 H       
  91 H91            1.2014     5.8529     1.7589 H       
  92 H92            0.1426     4.7391     4.2612 H       
  93 H93            1.9311     6.9351     4.2328 H       
  94 H94            0.3172     7.6247     4.5205 H       
  95 H95           -0.0598     6.0712     6.3765 H       
  96 H96            1.4923     5.2632     6.0509 H       
  97 H97            0.3784     7.0496     8.4737 H       
  98 H98            2.7269     8.0533     9.4261 H       
  99 H99            2.2950     9.2810     8.2089 H       
 100 H100           0.0900     8.5251    10.0535 H       
 101 H101           1.4692     9.3370    10.8324 H       
 102 H102           1.2939    11.2332     9.3480 H       
 103 H103           0.1222    10.3899     8.3098 H       
 104 H104          -1.3203    10.2323    10.5010 H       
 105 H105          -1.0289    12.8348     9.0466 H       
 106 H106           0.2170    10.0278    12.4440 H       
 107 H107           0.6548    11.4299    13.2595 H       
 108 H108          -3.0056    13.4693     7.9230 H       
 109 H109          -5.5981    12.0998     8.2258 H       
 110 H110          -4.8885    13.1776    10.3054 H       
 111 H111          -3.3958    14.1471    10.3084 H       
 112 H112          -6.0973    12.4806     5.3203 H       
 113 H113          -5.2512    11.3178     3.4739 H       
 114 H114          -6.0210     9.6458     6.4374 H       
 115 H115          -6.8895    11.0112     7.1788 H       
 116 H116          -3.6849     9.9276     2.4029 H       
 117 H117          -5.3159    17.8376     7.9659 H       
 118 H118          -3.4618    16.4648     9.0457 H       
 119 H119          -7.1609    12.9454     8.9757 H       
 120 H120          -9.3586    13.4998     8.0618 H       
 121 H121          -9.8059    15.7457     7.1673 H       
 122 H122          -8.0552    17.4650     7.1800 H       
 123 H123          -4.5318     7.5967     3.8487 H       
 124 H124          -1.7268     8.9439     4.5297 H       
 125 H125          -1.4010     8.8737     2.7812 H       
 126 H126          -1.4509    10.9528     5.7255 H       
 127 H127          -0.7233    13.3044     5.7685 H       
 128 H128          -0.7201    13.3779     1.5002 H       
 129 H129          -1.4427    11.0246     1.4612 H       
 130 H130          -8.2235    11.2878     5.1069 H       
 131 H131          -7.3549     9.9224     4.3655 H       
 132 H132          -8.1818     8.4227     6.1587 H       
 133 H133          -9.0503     9.7881     6.9002 H       
 134 H134          -9.8625     9.5755     4.2036 H       
 135 H135         -10.0327     7.8077     7.2597 H       
 136 H136         -11.4978     7.0526     6.9340 H       
 137 H137         -12.5602     7.4731     4.9152 H       
 138 H138          -1.9088     8.2447     1.3323 H       
 139 H139          -2.4666     4.7053    -0.3458 H       
 140 H140          -1.3186     5.6182    -1.3746 H       
 141 H141          -3.6721     6.6922    -0.2930 H       
 142 H142          -2.2624     7.6607    -0.8033 H       
 143 H143           0.1484     6.0046     0.3821 H       
 144 H144          -0.5972     4.5074     1.0192 H       
@<TRIPOS>BOND
   1    1    2 1
   2    1    3 am
   3    1    4 2
   4    2   76 1
   5    2   77 1
   6    2   78 1
   7    3    5 1
   8    3   79 1
   9    5    6 1
  10    5    7 1
  11    5   80 1
  12    6    8 1
  13    6   81 1
  14    6   82 1
  15    7   14 2
  16    7   15 am
  17    8    9 1
  18    8   83 1
  19    8   84 1
  20    9   10 1
  21    9   85 1
  22    9   86 1
  23   10   11 1
  24   10   87 1
  25   11   12 1
  26   11   13 2
  27   12   88 1
  28   12   89 1
  29   13   90 1
  30   15   16 1
  31   15   91 1
  32   16   17 1
  33   16   59 1
  34   16   92 1
  35   17   18 1
  36   17   93 1
  37   17   94 1
  38   18   19 1
  39   18   95 1
  40   18   96 1
  41   19   20 am
  42   19   71 2
  43   20   21 1
  44   20   97 1
  45   21   22 1
  46   21   98 1
  47   21   99 1
  48   22   23 1
  49   22  100 1
  50   22  101 1
  51   23   24 1
  52   23  102 1
  53   23  103 1
  54   24   25 1
  55   24   26 1
  56   24  104 1
  57   25   29 am
  58   25  105 1
  59   26   27 am
  60   26   28 2
  61   27  106 1
  62   27  107 1
  63   29   30 2
  64   29   31 1
  65   31   32 1
  66   31   33 1
  67   31  108 1
  68   32   34 am
  69   32  109 1
  70   33   42 1
  71   33  110 1
  72   33  111 1
  73   34   35 2
  74   34   36 1
  75   36   37 1
  76   36   38 1
  77   36  112 1
  78   37   39 am
  79   37  113 1
  80   38   61 1
  81   38  114 1
  82   38  115 1
  83   39   40 2
  84   39   41 1
  85   41   51 1
  86   41   52 1
  87   41  116 1
  88   42   43 1
  89   42   46 2
  90   43   44 ar
  91   43   47 ar
  92   44   45 1
  93   44   50 ar
  94   45   46 1
  95   45  117 1
  96   46  118 1
  97   47   48 ar
  98   47  119 1
  99   48   49 ar
 100   48  120 1
 101   49   50 ar
 102   49  121 1
 103   50  122 1
 104   51   69 am
 105   51  123 1
 106   52   53 1
 107   52  124 1
 108   52  125 1
 109   53   54 ar
 110   53   58 ar
 111   54   55 ar
 112   54  126 1
 113   55   56 ar
 114   55  127 1
 115   56   57 ar
 116   56   75 1
 117   57   58 ar
 118   57  128 1
 119   58  129 1
 120   59   60 2
 121   59   67 am
 122   61   62 1
 123   61  130 1
 124   61  131 1
 125   62   63 1
 126   62  132 1
 127   62  133 1
 128   63   64 1
 129   63  134 1
 130   64   65 1
 131   64   66 2
 132   65  135 1
 133   65  136 1
 134   66  137 1
 135   67   68 1
 136   67   74 1
 137   68   69 1
 138   68   73 1
 139   68  138 1
 140   69   70 2
 141   72   73 1
 142   72   74 1
 143   72  139 1
 144   72  140 1
 145   73  141 1
 146   73  142 1
 147   74  143 1
 148   74  144 1

#	End of record

