#	Name: ASD07300952
#	Creating user name:	WinNT
#	Creation time:	15. 06. 2019 21:10

#	Modifying user name:	WinNT
#	Modification time:	15. 06. 2019 21:10

#	Program:	/corina/corina34_cracker 3.40 0067  02.08.2006

@<TRIPOS>MOLECULE
ASD07300952
  48   52    0    0    0
SMALL
NO_CHARGES


@<TRIPOS>ATOM
   1 N1            -0.1406     1.9905     0.0345 N.am    
   2 C2            -0.0375     0.6395    -0.0398 C.2     
   3 N3             1.0322     0.0318    -0.4631 N.2     
   4 C4             2.1207     0.7079    -0.8608 C.2     
   5 C5             2.1080     2.1113    -0.8201 C.2     
   6 C6             0.8963     2.7757    -0.3406 C.2     
   7 N7             3.3433     0.3446    -1.3362 N.pl3   
   8 N8             4.0803     1.5088    -1.5874 N.2     
   9 C9             3.3601     2.5544    -1.2861 C.2     
  10 O10            0.8226     3.9904    -0.2819 O.2     
  11 C11            3.7882    -0.9681    -1.5386 C.ar    
  12 C12            2.9936    -1.8850    -2.2135 C.ar    
  13 N13            3.4086    -3.1213    -2.4055 N.ar    
  14 C14            4.5824    -3.5357    -1.9705 C.ar    
  15 C15            5.4299    -2.6810    -1.2898 C.ar    
  16 C16            5.0367    -1.3712    -1.0707 C.ar    
  17 C17           -1.2165    -0.1958     0.3883 C.3     
  18 C18           -1.2560    -0.4768     1.8997 C.3     
  19 C19           -0.4081    -1.7265     1.6098 C.3     
  20 C20           -1.0048    -1.7063     0.1926 C.3     
  21 C21           -0.5397     0.5605     2.7255 C.2     
  22 N22           -1.1152     1.3977     3.5208 N.2     
  23 C23           -0.3381     2.2404     4.1709 C.2     
  24 C24            0.9656     2.1065     3.9093 C.2     
  25 S25            1.1540     0.7934     2.7497 S.3     
  26 C26            2.0785     2.9297     4.5051 C.3     
  27 C27           -0.8755     3.2709     5.1302 C.3     
  28 C28            5.9321    -0.4093    -0.3331 C.3     
  29 H29           -0.9621     2.3953     0.3540 H       
  30 H30            3.6714     3.5844    -1.3790 H       
  31 H31            2.0256    -1.5824    -2.5846 H       
  32 H32            4.8860    -4.5568    -2.1480 H       
  33 H33            6.3893    -3.0296    -0.9371 H       
  34 H34           -2.1619     0.1695    -0.0128 H       
  35 H35           -2.2536    -0.7036     2.2757 H       
  36 H36            0.6657    -1.5409     1.6341 H       
  37 H37           -0.7013    -2.5984     2.1946 H       
  38 H38           -1.9338    -2.2693     0.1020 H       
  39 H39           -0.2839    -1.9487    -0.5882 H       
  40 H40            2.4324     2.4543     5.4200 H       
  41 H41            2.8996     3.0011     3.7918 H       
  42 H42            1.7086     3.9290     4.7345 H       
  43 H43           -0.9194     2.8458     6.1330 H       
  44 H44           -0.2197     4.1415     5.1331 H       
  45 H45           -1.8760     3.5706     4.8185 H       
  46 H46            6.6144     0.0655    -1.0381 H       
  47 H47            5.3238     0.3531     0.1535 H       
  48 H48            6.5058    -0.9509     0.4190 H       
@<TRIPOS>BOND
   1    1    2 1
   2    1    6 am
   3    1   29 1
   4    2    3 2
   5    2   17 1
   6    3    4 1
   7    4    5 2
   8    4    7 1
   9    5    6 1
  10    5    9 1
  11    6   10 2
  12    7    8 1
  13    7   11 1
  14    8    9 2
  15    9   30 1
  16   11   12 ar
  17   11   16 ar
  18   12   13 ar
  19   12   31 1
  20   13   14 ar
  21   14   15 ar
  22   14   32 1
  23   15   16 ar
  24   15   33 1
  25   16   28 1
  26   17   18 1
  27   17   20 1
  28   17   34 1
  29   18   19 1
  30   18   21 1
  31   18   35 1
  32   19   20 1
  33   19   36 1
  34   19   37 1
  35   20   38 1
  36   20   39 1
  37   21   22 2
  38   21   25 1
  39   22   23 1
  40   23   24 2
  41   23   27 1
  42   24   25 1
  43   24   26 1
  44   26   40 1
  45   26   41 1
  46   26   42 1
  47   27   43 1
  48   27   44 1
  49   27   45 1
  50   28   46 1
  51   28   47 1
  52   28   48 1

#	End of record

