#	Name: ASD05300030
#	Creating user name:	WinNT
#	Creation time:	15. 06. 2019 20:58

#	Modifying user name:	WinNT
#	Modification time:	15. 06. 2019 20:58

#	Program:	/corina/corina34_cracker 3.40 0067  02.08.2006

@<TRIPOS>MOLECULE
ASD05300030
  41   43    0    0    0
SMALL
NO_CHARGES


@<TRIPOS>ATOM
   1 C1            -0.3282    -1.6197    -3.2047 C.3     
   2 C2             0.0513    -0.3650    -2.4156 C.3     
   3 N3             0.4964    -0.7482    -1.0735 N.am    
   4 C4             1.7785    -1.1079    -0.8658 C.2     
   5 O5             2.4781    -1.4349    -1.8052 O.2     
   6 N6             2.2853    -1.1053     0.3831 N.am    
   7 C7             3.5294    -1.6950     0.6473 C.ar    
   8 C8             4.6619    -1.2145     0.0112 C.ar    
   9 C9             5.9021    -1.7613     0.2908 C.ar    
  10 C10            6.0181    -2.7883     1.2097 C.ar    
  11 C11            4.8970    -3.2876     1.8409 C.ar    
  12 C12            3.6353    -2.7581     1.5531 C.ar    
  13 C13            2.4461    -3.3608     2.1638 C.2     
  14 C14            1.3745    -2.7192     2.5895 C.2     
  15 C15            1.1632    -1.2706     2.5381 C.ar    
  16 C16            1.5798    -0.5085     1.4351 C.ar    
  17 C17            1.3018     0.8480     1.4135 C.ar    
  18 N18            0.6862     1.4255     2.4292 N.ar    
  19 C19            0.3103     0.7505     3.4981 C.ar    
  20 C20            0.5301    -0.6086     3.5967 C.ar    
  21 C21           -0.4522    -0.7403     0.0429 C.3     
  22 C22           -0.7130    -2.1767     0.5007 C.3     
  23 H23            0.5588    -2.2341    -3.3590 H       
  24 H24           -1.0717    -2.1888    -2.6466 H       
  25 H25           -0.7422    -1.3302    -4.1705 H       
  26 H26            0.8575     0.1578    -2.9303 H       
  27 H27           -0.8156     0.2911    -2.3375 H       
  28 H28            4.5769    -0.4110    -0.7055 H       
  29 H29            6.7817    -1.3852    -0.2102 H       
  30 H30            6.9904    -3.2016     1.4340 H       
  31 H31            4.9943    -4.0893     2.5580 H       
  32 H32            2.4474    -4.4350     2.2760 H       
  33 H33            0.5809    -3.3164     3.0138 H       
  34 H34            1.5911     1.4394     0.5573 H       
  35 H35           -0.1757     1.2697     4.3109 H       
  36 H36            0.2149    -1.1537     4.4741 H       
  37 H37           -0.0354    -0.1654     0.8698 H       
  38 H38           -1.3891    -0.2860    -0.2796 H       
  39 H39           -1.1299    -2.7516    -0.3262 H       
  40 H40            0.2238    -2.6310     0.8232 H       
  41 H41           -1.4188    -2.1708     1.3313 H       
@<TRIPOS>BOND
   1    1    2 1
   2    1   23 1
   3    1   24 1
   4    1   25 1
   5    2    3 1
   6    2   26 1
   7    2   27 1
   8    3    4 am
   9    3   21 1
  10    4    5 2
  11    4    6 am
  12    6    7 1
  13    6   16 1
  14    7    8 ar
  15    7   12 ar
  16    8    9 ar
  17    8   28 1
  18    9   10 ar
  19    9   29 1
  20   10   11 ar
  21   10   30 1
  22   11   12 ar
  23   11   31 1
  24   12   13 1
  25   13   14 2
  26   13   32 1
  27   14   15 1
  28   14   33 1
  29   15   16 ar
  30   15   20 ar
  31   16   17 ar
  32   17   18 ar
  33   17   34 1
  34   18   19 ar
  35   19   20 ar
  36   19   35 1
  37   20   36 1
  38   21   22 1
  39   21   37 1
  40   21   38 1
  41   22   39 1
  42   22   40 1
  43   22   41 1

#	End of record

