#	Name: ASD09530014
#	Creating user name:	WinNT
#	Creation time:	15. 06. 2019 21:22

#	Modifying user name:	WinNT
#	Modification time:	15. 06. 2019 21:22

#	Program:	/corina/corina34_cracker 3.40 0067  02.08.2006

@<TRIPOS>MOLECULE
ASD09530014
  49   51    0    0    0
SMALL
NO_CHARGES


@<TRIPOS>ATOM
   1 N1             0.6738    -1.4633    -0.0716 N.am    
   2 C2             1.4126    -2.4734    -0.5328 C.2     
   3 C3             2.8928    -2.3619    -0.7770 C.3     
   4 N4             3.2785    -0.9438    -0.7246 N.am    
   5 C5             2.6915    -0.1236     0.3485 C.3     
   6 C6             1.1725    -0.1158     0.1670 C.3     
   7 O7             0.8659    -3.5307    -0.7658 O.2     
   8 C8             3.6501    -3.1390     0.3017 C.3     
   9 C9             3.2294    -2.9338    -2.1556 C.3     
  10 C10            4.1346    -0.4163    -1.6219 C.2     
  11 C11            4.4149     1.0644    -1.6158 C.3     
  12 C12            5.4129     1.3992    -2.7261 C.3     
  13 O13            4.6794    -1.1332    -2.4344 O.2     
  14 C14            4.7855     1.1177    -4.0671 C.ar    
  15 C15            3.5474     1.6498    -4.3757 C.ar    
  16 C16            2.9713     1.3928    -5.6053 C.ar    
  17 C17            3.6346     0.6020    -6.5283 C.ar    
  18 C18            4.8745     0.0697    -6.2181 C.ar    
  19 C19            5.4510     0.3324    -4.9898 C.ar    
  20 F20            3.0722     0.3498    -7.7304 F       
  21 C21            5.7871     2.8566    -2.6425 C.ar    
  22 C22            7.1186     3.2269    -2.6090 C.ar    
  23 C23            7.4630     4.5631    -2.5328 C.ar    
  24 C24            6.4739     5.5311    -2.4900 C.ar    
  25 C25            5.1407     5.1589    -2.5237 C.ar    
  26 C26            4.7987     3.8224    -2.6052 C.ar    
  27 F27            6.8094     6.8376    -2.4151 F       
  28 H28           -0.2622    -1.6372     0.1144 H       
  29 H29            2.9439    -0.5519     1.3186 H       
  30 H30            3.0748     0.8948     0.2845 H       
  31 H31            0.9159     0.5174    -0.6823 H       
  32 H32            0.7057     0.2854     1.0666 H       
  33 H33            3.3553    -4.1879     0.2684 H       
  34 H34            4.7223    -3.0572     0.1233 H       
  35 H35            3.4122    -2.7257     1.2818 H       
  36 H36            2.8418    -2.2704    -2.9287 H       
  37 H37            4.3110    -3.0197    -2.2592 H       
  38 H38            2.7750    -3.9190    -2.2610 H       
  39 H39            3.4868     1.6106    -1.7846 H       
  40 H40            4.8347     1.3507    -0.6515 H       
  41 H41            6.3070     0.7871    -2.6076 H       
  42 H42            3.0301     2.2663    -3.6555 H       
  43 H43            2.0039     1.8083    -5.8460 H       
  44 H44            5.3928    -0.5472    -6.9372 H       
  45 H45            6.4200    -0.0793    -4.7492 H       
  46 H46            7.8900     2.4717    -2.6420 H       
  47 H47            8.5033     4.8522    -2.5062 H       
  48 H48            4.3683     5.9131    -2.4904 H       
  49 H49            3.7589     3.5321    -2.6356 H       
@<TRIPOS>BOND
   1    1    2 am
   2    1    6 1
   3    1   28 1
   4    2    3 1
   5    2    7 2
   6    3    4 1
   7    3    8 1
   8    3    9 1
   9    4    5 1
  10    4   10 am
  11    5    6 1
  12    5   29 1
  13    5   30 1
  14    6   31 1
  15    6   32 1
  16    8   33 1
  17    8   34 1
  18    8   35 1
  19    9   36 1
  20    9   37 1
  21    9   38 1
  22   10   11 1
  23   10   13 2
  24   11   12 1
  25   11   39 1
  26   11   40 1
  27   12   14 1
  28   12   21 1
  29   12   41 1
  30   14   15 ar
  31   14   19 ar
  32   15   16 ar
  33   15   42 1
  34   16   17 ar
  35   16   43 1
  36   17   18 ar
  37   17   20 1
  38   18   19 ar
  39   18   44 1
  40   19   45 1
  41   21   22 ar
  42   21   26 ar
  43   22   23 ar
  44   22   46 1
  45   23   24 ar
  46   23   47 1
  47   24   25 ar
  48   24   27 1
  49   25   26 ar
  50   25   48 1
  51   26   49 1

#	End of record

