#	Name: ASD02038798
#	Creating user name:	WinNT
#	Creation time:	15. 06. 2019 20:17

#	Modifying user name:	WinNT
#	Modification time:	15. 06. 2019 20:17

#	Program:	/corina/corina34_cracker 3.40 0067  02.08.2006

@<TRIPOS>MOLECULE
ASD02038798
  42   44    0    0    0
SMALL
NO_CHARGES


@<TRIPOS>ATOM
   1 C1            -1.2821    -0.8495     0.4637 C.2     
   2 C2            -0.0597    -0.0335     0.3009 C.2     
   3 N3             1.1374    -0.6350     0.1537 N.am    
   4 C4             1.2414    -2.0931     0.2506 C.3     
   5 C5             1.2138    -2.6917    -1.1321 C.ar    
   6 C6             2.3346     0.1693    -0.1032 C.3     
   7 O7            -0.1345     1.1797     0.2997 O.2     
   8 N8            -1.3387    -2.1935     0.4936 N.2     
   9 C9            -2.5945    -2.5259     0.6527 C.2     
  10 N10           -3.3115    -1.3890     0.7208 N.pl3   
  11 N11           -2.5054    -0.3899     0.6106 N.2     
  12 C12            2.3980    -3.0139    -1.7688 C.ar    
  13 C13            2.1240     1.0135    -1.3638 C.3     
  14 C14            3.3476     1.9079    -1.5799 C.3     
  15 O15            3.5472     2.7267    -0.4258 O.3     
  16 C16            3.7961     1.9923     0.7746 C.3     
  17 C17            2.5905     1.1013     1.0852 C.3     
  18 C18            0.0045    -2.9232    -1.7601 C.ar    
  19 C19           -0.0234    -3.4727    -3.0285 C.ar    
  20 C20            1.1602    -3.7911    -3.6707 C.ar    
  21 C21            2.3735    -3.5635    -3.0384 C.ar    
  22 C22           -4.7633    -1.3021     0.8967 C.3     
  23 F23            3.5303    -3.8736    -3.6635 F       
  24 F24            1.1337    -4.3285    -4.9099 F       
  25 H25            2.1769    -2.3587     0.7429 H       
  26 H26            0.4032    -2.4794     0.8306 H       
  27 H27            3.1924    -0.4884    -0.2438 H       
  28 H28           -2.9848    -3.5308     0.7173 H       
  29 H29            3.3421    -2.8362    -1.2754 H       
  30 H30            1.9961     0.3571    -2.2246 H       
  31 H31            1.2361     1.6340    -1.2426 H       
  32 H32            4.2283     1.2864    -1.7413 H       
  33 H33            3.1851     2.5418    -2.4516 H       
  34 H34            4.6826     1.3718     0.6439 H       
  35 H35            3.9566     2.6870     1.5990 H       
  36 H36            1.7120     1.7235     1.2559 H       
  37 H37            2.7963     0.5076     1.9760 H       
  38 H38           -0.9196    -2.6750    -1.2593 H       
  39 H39           -0.9689    -3.6538    -3.5178 H       
  40 H40           -4.9988    -1.2630     1.9602 H       
  41 H41           -5.1351    -0.4009     0.4089 H       
  42 H42           -5.2363    -2.1775     0.4517 H       
@<TRIPOS>BOND
   1    1    2 1
   2    1    8 1
   3    1   11 2
   4    2    3 am
   5    2    7 2
   6    3    4 1
   7    3    6 1
   8    4    5 1
   9    4   25 1
  10    4   26 1
  11    5   12 ar
  12    5   18 ar
  13    6   13 1
  14    6   17 1
  15    6   27 1
  16    8    9 2
  17    9   10 1
  18    9   28 1
  19   10   11 1
  20   10   22 1
  21   12   21 ar
  22   12   29 1
  23   13   14 1
  24   13   30 1
  25   13   31 1
  26   14   15 1
  27   14   32 1
  28   14   33 1
  29   15   16 1
  30   16   17 1
  31   16   34 1
  32   16   35 1
  33   17   36 1
  34   17   37 1
  35   18   19 ar
  36   18   38 1
  37   19   20 ar
  38   19   39 1
  39   20   21 ar
  40   20   24 1
  41   21   23 1
  42   22   40 1
  43   22   41 1
  44   22   42 1

#	End of record

