#	Name: ASD03110040
#	Creating user name:	WinNT
#	Creation time:	15. 06. 2019 20:33

#	Modifying user name:	WinNT
#	Modification time:	15. 06. 2019 20:33

#	Program:	/corina/corina34_cracker 3.40 0067  02.08.2006

@<TRIPOS>MOLECULE
ASD03110040
  26   27    0    0    0
SMALL
NO_CHARGES


@<TRIPOS>ATOM
   1 C1            -0.0166     1.3763     0.0096 C.ar    
   2 C2             0.0021    -0.0041     0.0020 C.ar    
   3 C3             1.2042    -0.6926    -0.0107 C.ar    
   4 C4             2.3996    -0.0052    -0.0158 C.ar    
   5 C5             2.3911     1.3917    -0.0126 C.ar    
   6 C6             1.1763     2.0862     0.0020 C.ar    
   7 C7             3.7014    -0.7625    -0.0190 C.3     
   8 C8             4.8305     0.1259    -0.5425 C.3     
   9 O9             4.8051     1.4017     0.1612 O.3     
  10 C10            3.6730     2.1267    -0.0292 C.2     
  11 O11            3.7122     3.3284    -0.2053 O.2     
  12 C12            6.1754    -0.5630    -0.3025 C.3     
  13 O13            1.1644     3.4425     0.0083 O.3     
  14 C14           -0.1144     4.0801     0.0232 C.3     
  15 H15           -0.9591     1.9037     0.0169 H       
  16 H16           -0.9286    -0.5520     0.0064 H       
  17 H17            1.2051    -1.7726    -0.0163 H       
  18 H18            3.9352    -1.0825     0.9963 H       
  19 H19            3.6067    -1.6400    -0.6586 H       
  20 H20            4.6940     0.2966    -1.6103 H       
  21 H21            6.1927    -1.5187    -0.8265 H       
  22 H22            6.9799     0.0706    -0.6758 H       
  23 H23            6.3117    -0.7318     0.7657 H       
  24 H24           -0.6772     3.7863    -0.8629 H       
  25 H25           -0.6604     3.7783     0.9170 H       
  26 H26            0.0190     5.1619     0.0268 H       
@<TRIPOS>BOND
   1    1    2 ar
   2    1    6 ar
   3    1   15 1
   4    2    3 ar
   5    2   16 1
   6    3    4 ar
   7    3   17 1
   8    4    5 ar
   9    4    7 1
  10    5    6 ar
  11    5   10 1
  12    6   13 1
  13    7    8 1
  14    7   18 1
  15    7   19 1
  16    8    9 1
  17    8   12 1
  18    8   20 1
  19    9   10 1
  20   10   11 2
  21   12   21 1
  22   12   22 1
  23   12   23 1
  24   13   14 1
  25   14   24 1
  26   14   25 1
  27   14   26 1

#	End of record

