#	Name: ASD06660232
#	Creating user name:	WinNT
#	Creation time:	15. 06. 2019 21:08

#	Modifying user name:	WinNT
#	Modification time:	15. 06. 2019 21:08

#	Program:	/corina/corina34_cracker 3.40 0067  02.08.2006

@<TRIPOS>MOLECULE
ASD06660232
  71   75    0    0    0
SMALL
NO_CHARGES


@<TRIPOS>ATOM
   1 C1            -0.1202     1.3885     0.1354 C.2     
   2 C2             0.1007    -0.1011     0.0793 C.3     
   3 C3            -0.5424    -0.6646    -1.1895 C.3     
   4 O4             0.8264     2.1391     0.1600 O.2     
   5 O5            -1.3684     1.8818     0.1525 O.3     
   6 C6            -0.4507    -2.1687    -1.1738 C.ar    
   7 C7            -1.3993    -2.9106    -0.4942 C.ar    
   8 C8            -1.3182    -4.2892    -0.4778 C.ar    
   9 C9            -0.2822    -4.9304    -1.1450 C.ar    
  10 C10            0.6690    -4.1821    -1.8267 C.ar    
  11 C11            0.5787    -2.8041    -1.8438 C.ar    
  12 N12           -0.1969    -6.3245    -1.1300 N.3     
  13 C13            0.9682    -6.7886    -1.8938 C.3     
  14 C14            0.9487    -8.3166    -1.9784 C.3     
  15 C15            0.9764    -8.9015    -0.5636 C.3     
  16 C16           -0.2207    -8.3645     0.2258 C.3     
  17 C17           -0.1673    -6.8352     0.2464 C.3     
  18 C18            0.8957   -10.4275    -0.6396 C.3     
  19 N19            1.0422   -10.9918     0.7044 N.pl3   
  20 C20            1.0017   -12.3690     0.8881 C.ar    
  21 C21            0.8219   -13.2060    -0.2087 C.ar    
  22 C22            0.7836   -14.5743    -0.0115 C.ar    
  23 C23            0.9270   -15.0619     1.2810 C.ar    
  24 C24            1.1022   -14.1740     2.3230 C.ar    
  25 N25            1.1401   -12.8730     2.1046 N.ar    
  26 N26            1.5385    -0.3814     0.0638 N.am    
  27 C27            2.1906    -1.0537     1.0280 C.2     
  28 C28            3.6624    -1.1489     0.6916 C.3     
  29 C29            3.8706    -0.0793    -0.4056 C.3     
  30 C30            2.4510     0.0303    -1.0094 C.3     
  31 C31            4.5018    -0.8325     1.9026 C.ar    
  32 C32            5.4662    -1.7269     2.3279 C.ar    
  33 C33            6.2361    -1.4368     3.4387 C.ar    
  34 C34            6.0419    -0.2520     4.1240 C.ar    
  35 C35            5.0781     0.6428     3.6981 C.ar    
  36 C36            4.3112     0.3546     2.5847 C.ar    
  37 O37            1.6742    -1.5164     2.0231 O.2     
  38 H38           -0.3513    -0.5686     0.9541 H       
  39 H39           -1.5896    -0.3648    -1.2300 H       
  40 H40           -0.0198    -0.2778    -2.0643 H       
  41 H41           -1.4599     2.8438     0.1888 H       
  42 H42           -2.2043    -2.4115     0.0247 H       
  43 H43           -2.0592    -4.8681     0.0535 H       
  44 H44            1.4757    -4.6775    -2.3465 H       
  45 H45            1.3153    -2.2218    -2.3776 H       
  46 H46            0.9341    -6.3688    -2.8992 H       
  47 H47            1.8818    -6.4641    -1.3957 H       
  48 H48            0.0419    -8.6412    -2.4887 H       
  49 H49            1.8220    -8.6616    -2.5320 H       
  50 H50            1.9013    -8.6091    -0.0665 H       
  51 H51           -1.1459    -8.6899    -0.2499 H       
  52 H52           -0.1829    -8.7437     1.2470 H       
  53 H53            0.7516    -6.5104     0.7346 H       
  54 H54           -1.0261    -6.4492     0.7956 H       
  55 H55           -0.0694   -10.7201    -1.0533 H       
  56 H56            1.6942   -10.8021    -1.2800 H       
  57 H57            1.1674   -10.4044     1.4661 H       
  58 H58            0.7132   -12.7927    -1.2006 H       
  59 H59            0.6449   -15.2485    -0.8438 H       
  60 H60            0.9014   -16.1252     1.4688 H       
  61 H61            1.2142   -14.5489     3.3297 H       
  62 H62            3.9028    -2.1405     0.3081 H       
  63 H63            4.1882     0.8685     0.0290 H       
  64 H64            4.5847    -0.4223    -1.1542 H       
  65 H65            2.3502    -0.6356    -1.8664 H       
  66 H66            2.2463     1.0595    -1.3044 H       
  67 H67            5.6179    -2.6525     1.7925 H       
  68 H68            6.9891    -2.1358     3.7714 H       
  69 H69            6.6429    -0.0256     4.9923 H       
  70 H70            4.9262     1.5683     4.2336 H       
  71 H71            3.5607     1.0553     2.2498 H       
@<TRIPOS>BOND
   1    1    2 1
   2    1    4 2
   3    1    5 1
   4    2    3 1
   5    2   26 1
   6    2   38 1
   7    3    6 1
   8    3   39 1
   9    3   40 1
  10    5   41 1
  11    6    7 ar
  12    6   11 ar
  13    7    8 ar
  14    7   42 1
  15    8    9 ar
  16    8   43 1
  17    9   10 ar
  18    9   12 1
  19   10   11 ar
  20   10   44 1
  21   11   45 1
  22   12   13 1
  23   12   17 1
  24   13   14 1
  25   13   46 1
  26   13   47 1
  27   14   15 1
  28   14   48 1
  29   14   49 1
  30   15   16 1
  31   15   18 1
  32   15   50 1
  33   16   17 1
  34   16   51 1
  35   16   52 1
  36   17   53 1
  37   17   54 1
  38   18   19 1
  39   18   55 1
  40   18   56 1
  41   19   20 1
  42   19   57 1
  43   20   21 ar
  44   20   25 ar
  45   21   22 ar
  46   21   58 1
  47   22   23 ar
  48   22   59 1
  49   23   24 ar
  50   23   60 1
  51   24   25 ar
  52   24   61 1
  53   26   27 am
  54   26   30 1
  55   27   28 1
  56   27   37 2
  57   28   29 1
  58   28   31 1
  59   28   62 1
  60   29   30 1
  61   29   63 1
  62   29   64 1
  63   30   65 1
  64   30   66 1
  65   31   32 ar
  66   31   36 ar
  67   32   33 ar
  68   32   67 1
  69   33   34 ar
  70   33   68 1
  71   34   35 ar
  72   34   69 1
  73   35   36 ar
  74   35   70 1
  75   36   71 1

#	End of record

