#	Name: ASD03092939
#	Creating user name:	WinNT
#	Creation time:	15. 06. 2019 20:33

#	Modifying user name:	WinNT
#	Modification time:	15. 06. 2019 20:33

#	Program:	/corina/corina34_cracker 3.40 0067  02.08.2006

@<TRIPOS>MOLECULE
ASD03092939
  49   51    0    0    0
SMALL
NO_CHARGES


@<TRIPOS>ATOM
   1 C1            -1.0137     1.6951     1.0364 C.3     
   2 C2            -1.2706     0.2125     1.3136 C.3     
   3 C3            -1.4125    -0.5256     0.0074 C.2     
   4 O4            -1.4124     0.0889    -1.0406 O.2     
   5 C5            -1.5453    -1.9288     0.0017 C.2     
   6 C6            -2.7330    -2.6459     0.1499 C.2     
   7 C7            -2.3864    -4.0176     0.0791 C.2     
   8 C8            -1.0363    -4.0908    -0.1049 C.2     
   9 C9            -0.2416    -5.3645    -0.2352 C.3     
  10 N10           -0.5261    -2.8438    -0.1575 N.pl3   
  11 C11            0.8880    -2.5134    -0.3501 C.3     
  12 C12           -3.3207    -5.1650     0.1855 C.ar    
  13 C13           -3.9180    -5.6883    -0.9589 C.ar    
  14 C14           -4.7867    -6.7560    -0.8555 C.ar    
  15 C15           -5.0662    -7.3078     0.3839 C.ar    
  16 F16           -5.9173    -8.3527     0.4792 F       
  17 C17           -4.4756    -6.7921     1.5260 C.ar    
  18 C18           -3.5997    -5.7275     1.4322 C.ar    
  19 F19           -3.0195    -5.2281     2.5454 F       
  20 C20           -4.0881    -2.0841     0.3436 C.ar    
  21 C21           -4.7735    -2.3037     1.5391 C.ar    
  22 C22           -6.0367    -1.7772     1.7134 C.ar    
  23 C23           -6.6241    -1.0327     0.7060 C.ar    
  24 C24           -5.9499    -0.8113    -0.4818 C.ar    
  25 C25           -4.6839    -1.3275    -0.6663 C.ar    
  26 S26           -8.2380    -0.3642     0.9363 S.o2    
  27 N27           -8.0549     1.1394     1.6055 N.am    
  28 O28           -8.7779    -0.1623    -0.3626 O.2     
  29 O29           -8.8684    -1.1687     1.9235 O.2     
  30 H30           -0.9111     2.2289     1.9811 H       
  31 H31           -0.0969     1.8028     0.4567 H       
  32 H32           -1.8501     2.1097     0.4738 H       
  33 H33           -0.4341    -0.2022     1.8763 H       
  34 H34           -2.1873     0.1048     1.8933 H       
  35 H35           -0.1878    -5.6535    -1.2848 H       
  36 H36            0.7656    -5.2054     0.1500 H       
  37 H37           -0.7278    -6.1561     0.3351 H       
  38 H38            1.3618    -2.3642     0.6201 H       
  39 H39            1.3838    -3.3301    -0.8748 H       
  40 H40            0.9708    -1.5999    -0.9391 H       
  41 H41           -3.7018    -5.2590    -1.9260 H       
  42 H42           -5.2498    -7.1617    -1.7428 H       
  43 H43           -4.6968    -7.2254     2.4902 H       
  44 H44           -4.3161    -2.8850     2.3261 H       
  45 H45           -6.5683    -1.9468     2.6381 H       
  46 H46           -6.4140    -0.2296    -1.2645 H       
  47 H47           -4.1568    -1.1502    -1.5922 H       
  48 H48           -7.1669     1.4825     1.7917 H       
  49 H49           -8.8356     1.6771     1.8113 H       
@<TRIPOS>BOND
   1    1    2 1
   2    1   30 1
   3    1   31 1
   4    1   32 1
   5    2    3 1
   6    2   33 1
   7    2   34 1
   8    3    4 2
   9    3    5 1
  10    5   10 1
  11    5    6 2
  12    6    7 1
  13    6   20 1
  14    7    8 2
  15    7   12 1
  16    8    9 1
  17    8   10 1
  18    9   35 1
  19    9   36 1
  20    9   37 1
  21   10   11 1
  22   11   38 1
  23   11   39 1
  24   11   40 1
  25   12   18 ar
  26   12   13 ar
  27   13   14 ar
  28   13   41 1
  29   14   15 ar
  30   14   42 1
  31   15   16 1
  32   15   17 ar
  33   17   18 ar
  34   17   43 1
  35   18   19 1
  36   20   25 ar
  37   20   21 ar
  38   21   22 ar
  39   21   44 1
  40   22   23 ar
  41   22   45 1
  42   23   24 ar
  43   23   26 1
  44   24   25 ar
  45   24   46 1
  46   25   47 1
  47   26   27 am
  48   26   28 2
  49   26   29 2
  50   27   48 1
  51   27   49 1

#	End of record

