#	Name: ASD01883416
#	Creating user name:	WinNT
#	Creation time:	15. 06. 2019 19:46

#	Modifying user name:	WinNT
#	Modification time:	15. 06. 2019 19:46

#	Program:	/corina/corina34_cracker 3.40 0067  02.08.2006

@<TRIPOS>MOLECULE
ASD01883416
  57   60    0    0    0
SMALL
NO_CHARGES


@<TRIPOS>ATOM
   1 N1            -0.0162     1.3418     0.0094 N.am    
   2 C2             0.0021    -0.0041     0.0020 C.2     
   3 C3            -1.2147    -0.7262     0.0102 C.2     
   4 C4            -2.4239    -0.0108     0.0261 C.2     
   5 C5            -2.3777     1.3956     0.0332 C.2     
   6 C6            -1.1861     2.0320     0.0299 C.2     
   7 O7             1.0658    -0.6002    -0.0122 O.2     
   8 C8            -1.2137    -2.1582     0.0021 C.1     
   9 N9            -1.2130    -3.2942    -0.0044 N.1     
  10 C10            1.2510     2.0769     0.0013 C.3     
  11 C11           -4.8833     0.0867     0.0506 C.3     
  12 C12           -6.0051    -0.7627    -0.5533 C.3     
  13 C13           -7.3224     0.0126    -0.4777 C.3     
  14 N14           -7.6250     0.3306     0.9236 N.3     
  15 C15           -6.5849     1.1849     1.5108 C.3     
  16 C16           -5.2456     0.4446     1.4946 C.3     
  17 C17           -8.9498     0.9530     1.0480 C.3     
  18 C18           -9.3293     1.0400     2.5038 C.ar    
  19 C19           -8.9891     2.1597     3.2398 C.ar    
  20 C20           -9.3366     2.2419     4.5755 C.ar    
  21 C21          -10.0275     1.1988     5.1767 C.ar    
  22 C22          -10.3672     0.0768     4.4353 C.ar    
  23 C23          -10.0221     0.0022     3.0996 C.ar    
  24 C24            1.6783     2.3406    -1.4440 C.3     
  25 C25            2.9231     3.2019    -1.6666 C.3     
  26 C26            2.9793     1.6949    -1.9250 C.3     
  27 N27           -3.6309    -0.6732     0.0341 N.pl3   
  28 O28          -10.3701     1.2765     6.4898 O.3     
  29 Cl29          -8.9089     3.6478     5.4998 Cl      
  30 C30          -11.0801     0.1660     7.0418 C.3     
  31 F31          -10.3014    -0.9903     6.9243 F       
  32 F32          -11.3511     0.4106     8.3924 F       
  33 F33          -12.2829    -0.0094     6.3492 F       
  34 H34           -3.2946     1.9661     0.0450 H       
  35 H35           -1.1631     3.1117     0.0354 H       
  36 H36            1.1236     3.0263     0.5214 H       
  37 H37            2.0167     1.4867     0.5046 H       
  38 H38           -4.7632     0.9996    -0.5328 H       
  39 H39           -5.7729    -0.9849    -1.5948 H       
  40 H40           -6.0981    -1.6936     0.0061 H       
  41 H41           -7.2332     0.9368    -1.0487 H       
  42 H42           -8.1259    -0.5951    -0.8939 H       
  43 H43           -6.4992     2.1036     0.9305 H       
  44 H44           -6.8528     1.4286     2.5389 H       
  45 H45           -5.3267    -0.4673     2.0862 H       
  46 H46           -4.4708     1.0849     1.9162 H       
  47 H47           -8.9222     1.9548     0.6192 H       
  48 H48           -9.6858     0.3502     0.5160 H       
  49 H49           -8.4513     2.9706     2.7712 H       
  50 H50          -10.9047    -0.7361     4.9008 H       
  51 H51          -10.2869    -0.8712     2.5221 H       
  52 H52            0.8661     2.4342    -2.1648 H       
  53 H53            2.9300     3.8618    -2.5341 H       
  54 H54            3.4376     3.5806    -0.7835 H       
  55 H55            3.5308     1.0822    -1.2118 H       
  56 H56            3.0232     1.3634    -2.9624 H       
  57 H57           -3.6520    -1.6429     0.0288 H       
@<TRIPOS>BOND
   1    1    2 am
   2    1   10 1
   3    1    6 1
   4    2    3 1
   5    2    7 2
   6    3    4 2
   7    3    8 1
   8    4    5 1
   9    4   27 1
  10    5    6 2
  11    5   34 1
  12    6   35 1
  13    8    9 3
  14   10   24 1
  15   10   36 1
  16   10   37 1
  17   11   12 1
  18   11   27 1
  19   11   16 1
  20   11   38 1
  21   12   13 1
  22   12   39 1
  23   12   40 1
  24   13   14 1
  25   13   41 1
  26   13   42 1
  27   14   15 1
  28   14   17 1
  29   15   16 1
  30   15   43 1
  31   15   44 1
  32   16   45 1
  33   16   46 1
  34   17   18 1
  35   17   47 1
  36   17   48 1
  37   18   19 ar
  38   18   23 ar
  39   19   20 ar
  40   19   49 1
  41   20   21 ar
  42   20   29 1
  43   21   22 ar
  44   21   28 1
  45   22   23 ar
  46   22   50 1
  47   23   51 1
  48   24   25 1
  49   24   26 1
  50   24   52 1
  51   25   26 1
  52   25   53 1
  53   25   54 1
  54   26   55 1
  55   26   56 1
  56   27   57 1
  57   28   30 1
  58   30   31 1
  59   30   32 1
  60   30   33 1

#	End of record

