#	Name: ASD03730068
#	Creating user name:	WinNT
#	Creation time:	15. 06. 2019 20:43

#	Modifying user name:	WinNT
#	Modification time:	15. 06. 2019 20:43

#	Program:	/corina/corina34_cracker 3.40 0067  02.08.2006

@<TRIPOS>MOLECULE
ASD03730068
  53   58    0    0    0
SMALL
NO_CHARGES


@<TRIPOS>ATOM
   1 C1            -0.0186     1.5024     0.0153 C.2     
   2 C2             0.0014    -0.0045     0.0122 C.3     
   3 O3             1.0237     2.1227     0.0091 O.2     
   4 N4            -1.1946     2.1607     0.0195 N.am    
   5 O5             6.2411     2.8840     2.1129 O.3     
   6 C6             7.6610     2.8282     2.3449 C.3     
   7 O7             7.8720     1.4999     2.8589 O.3     
   8 C8             6.8619     0.7419     2.3392 C.ar    
   9 C9             5.8590     1.5936     1.8817 C.ar    
  10 C10            6.7151    -0.6281     2.2167 C.ar    
  11 C11            5.5686    -1.1656     1.6395 C.ar    
  12 C12            4.5700    -0.3051     1.1937 C.ar    
  13 C13            4.7160     1.0616     1.3088 C.ar    
  14 O14            5.2364    -2.4685     1.4106 O.3     
  15 C15            3.4648    -1.1733     0.6547 C.3     
  16 C16            3.8151    -2.5659     1.1964 C.3     
  17 N17            1.3889    -0.4745     0.0013 N.am    
  18 C18            2.1095    -0.7186     1.1141 C.2     
  19 C19            3.4036    -1.1549    -0.8439 C.ar    
  20 C20            4.3074    -1.4608    -1.8368 C.ar    
  21 C21            3.9432    -1.3414    -3.1662 C.ar    
  22 C22            2.6698    -0.9135    -3.4952 C.ar    
  23 C23            1.7613    -0.6050    -2.5043 C.ar    
  24 C24            2.1191    -0.7227    -1.1634 C.ar    
  25 O25            1.7361    -0.5954     2.2615 O.2     
  26 C26           -1.2153     3.5552     0.1327 C.ar    
  27 C27           -2.1829     4.2923    -0.5356 C.ar    
  28 C28           -2.2005     5.6733    -0.4206 C.ar    
  29 C29           -1.2513     6.3158     0.3621 C.ar    
  30 C30           -0.2887     5.5804     1.0268 C.ar    
  31 C31           -0.2712     4.2030     0.9188 C.ar    
  32 O32           -3.1464     6.3979    -1.0741 O.3     
  33 C33           -3.1045     7.8169    -0.9103 C.3     
  34 H34           -0.5012    -0.3764     0.9051 H       
  35 H35           -0.5139    -0.3729    -0.8748 H       
  36 H36           -2.0266     1.6678    -0.0561 H       
  37 H37            8.2073     2.9691     1.4122 H       
  38 H38            7.9585     3.5753     3.0807 H       
  39 H39            7.4955    -1.2850     2.5714 H       
  40 H40            3.9367     1.7185     0.9516 H       
  41 H41            3.5865    -3.3365     0.4601 H       
  42 H42            3.2946    -2.7586     2.1344 H       
  43 H43            5.3013    -1.7946    -1.5776 H       
  44 H44            4.6514    -1.5821    -3.9452 H       
  45 H45            2.3855    -0.8202    -4.5329 H       
  46 H46            0.7690    -0.2710    -2.7691 H       
  47 H47           -2.9205     3.7907    -1.1445 H       
  48 H48           -1.2648     7.3920     0.4515 H       
  49 H49            0.4489     6.0828     1.6349 H       
  50 H50            0.4795     3.6301     1.4429 H       
  51 H51           -3.9120     8.2728    -1.4833 H       
  52 H52           -3.2229     8.0645     0.1446 H       
  53 H53           -2.1468     8.1958    -1.2671 H       
@<TRIPOS>BOND
   1    1    2 1
   2    1    3 2
   3    1    4 am
   4    2   17 1
   5    2   34 1
   6    2   35 1
   7    4   26 1
   8    4   36 1
   9    5    6 1
  10    5    9 1
  11    6    7 1
  12    6   37 1
  13    6   38 1
  14    7    8 1
  15    8    9 ar
  16    8   10 ar
  17    9   13 ar
  18   10   11 ar
  19   10   39 1
  20   11   12 ar
  21   11   14 1
  22   12   13 ar
  23   12   15 1
  24   13   40 1
  25   14   16 1
  26   15   16 1
  27   15   18 1
  28   15   19 1
  29   16   41 1
  30   16   42 1
  31   17   18 am
  32   17   24 1
  33   18   25 2
  34   19   20 ar
  35   19   24 ar
  36   20   21 ar
  37   20   43 1
  38   21   22 ar
  39   21   44 1
  40   22   23 ar
  41   22   45 1
  42   23   24 ar
  43   23   46 1
  44   26   27 ar
  45   26   31 ar
  46   27   28 ar
  47   27   47 1
  48   28   29 ar
  49   28   32 1
  50   29   30 ar
  51   29   48 1
  52   30   31 ar
  53   30   49 1
  54   31   50 1
  55   32   33 1
  56   33   51 1
  57   33   52 1
  58   33   53 1

#	End of record

