#	Name: ASD02508129
#	Creating user name:	WinNT
#	Creation time:	15. 06. 2019 20:23

#	Modifying user name:	WinNT
#	Modification time:	15. 06. 2019 20:23

#	Program:	/corina/corina34_cracker 3.40 0067  02.08.2006

@<TRIPOS>MOLECULE
ASD02508129
  36   38    0    0    0
SMALL
NO_CHARGES


@<TRIPOS>ATOM
   1 C1             0.5208     2.0063    -0.3398 C.ar    
   2 C2             0.3044     0.6678    -0.0523 C.ar    
   3 C3             1.8181     2.4751    -0.5456 C.ar    
   4 C4             2.8876     1.5975    -0.4610 C.ar    
   5 C5             2.6643     0.2650    -0.1738 C.ar    
   6 C6             1.3764    -0.1994     0.0295 C.ar    
   7 N7            -0.3279     3.1023    -0.4926 N.am    
   8 C8             0.4405     4.1740    -0.7711 C.2     
   9 O9             1.7299     3.8027    -0.8050 O.3     
  10 S10            4.0253    -0.8489    -0.0667 S.o2    
  11 N11            4.4435    -0.9597     1.5318 N.am    
  12 C12            4.8756     0.1771     2.2218 C.ar    
  13 O13            0.0290     5.3015    -0.9659 O.2     
  14 C14           -1.7880     3.0908    -0.3727 C.3     
  15 O15            3.5285    -2.1266    -0.4409 O.2     
  16 O16            5.1147    -0.2158    -0.7235 O.2     
  17 C17            4.3667     0.4608     3.4824 C.ar    
  18 C18            5.8187     1.0210     1.6499 C.ar    
  19 C19            6.2445     2.1432     2.3334 C.ar    
  20 C20            5.7322     2.4267     3.5882 C.ar    
  21 C21            4.7954     1.5841     4.1623 C.ar    
  22 C22           -2.1828     3.3712     1.0787 C.3     
  23 F23            6.1507     3.5243     4.2554 F       
  24 H24           -0.6998     0.3038     0.1075 H       
  25 H25            3.8943     1.9550    -0.6198 H       
  26 H26            1.2093    -1.2425     0.2539 H       
  27 H27            4.3887    -1.8131     1.9895 H       
  28 H28           -2.2117     3.8591    -1.0194 H       
  29 H29           -2.1693     2.1142    -0.6708 H       
  30 H30            3.6360    -0.1961     3.9306 H       
  31 H31            6.2191     0.7999     0.6715 H       
  32 H32            6.9779     2.7997     1.8891 H       
  33 H33            4.3971     1.8071     5.1411 H       
  34 H34           -1.8014     4.3478     1.3768 H       
  35 H35           -3.2691     3.3626     1.1679 H       
  36 H36           -1.7590     2.6029     1.7254 H       
@<TRIPOS>BOND
   1    1    2 ar
   2    1    3 ar
   3    1    7 1
   4    2    6 ar
   5    2   24 1
   6    3    4 ar
   7    3    9 1
   8    4    5 ar
   9    4   25 1
  10    5    6 ar
  11    5   10 1
  12    6   26 1
  13    7    8 am
  14    7   14 1
  15    8    9 1
  16    8   13 2
  17   10   11 am
  18   10   15 2
  19   10   16 2
  20   11   12 1
  21   11   27 1
  22   12   17 ar
  23   12   18 ar
  24   14   22 1
  25   14   28 1
  26   14   29 1
  27   17   21 ar
  28   17   30 1
  29   18   19 ar
  30   18   31 1
  31   19   20 ar
  32   19   32 1
  33   20   21 ar
  34   20   23 1
  35   21   33 1
  36   22   34 1
  37   22   35 1
  38   22   36 1

#	End of record

