#	Name: ASD02401008
#	Creating user name:	WinNT
#	Creation time:	15. 06. 2019 20:20

#	Modifying user name:	WinNT
#	Modification time:	15. 06. 2019 20:20

#	Program:	/corina/corina34_cracker 3.40 0067  02.08.2006

@<TRIPOS>MOLECULE
ASD02401008
  27   28    0    0    0
SMALL
NO_CHARGES


@<TRIPOS>ATOM
   1 C1            -0.0167     1.3831     0.0096 C.ar    
   2 C2             0.0021    -0.0041     0.0020 C.ar    
   3 C3             1.2141    -0.6790    -0.0132 C.ar    
   4 C4             2.3989     0.0314    -0.0207 C.ar    
   5 C5             2.3774     1.4139    -0.0126 C.ar    
   6 C6             1.1708     2.0889     0.0021 C.ar    
   7 C7             3.6714     2.1863    -0.0198 C.3     
   8 C8             4.0899     2.4519    -1.4429 C.ar    
   9 C9             3.6676     3.6023    -2.0833 C.ar    
  10 C10            4.0499     3.8481    -3.3878 C.ar    
  11 C11            4.8583     2.9395    -4.0554 C.ar    
  12 C12            5.2807     1.7860    -3.4107 C.ar    
  13 C13            4.9003     1.5476    -2.1042 C.ar    
  14 O14           -1.1648    -0.7006     0.0099 O.3     
  15 O15            5.2354     3.1788    -5.3389 O.3     
  16 H16           -0.9590     1.9108     0.0170 H       
  17 H17            1.2314    -1.7588    -0.0188 H       
  18 H18            3.3426    -0.4935    -0.0325 H       
  19 H19            1.1567     3.1688     0.0084 H       
  20 H20            3.5318     3.1338     0.5007 H       
  21 H21            4.4441     1.6055     0.4838 H       
  22 H22            3.0380     4.3091    -1.5633 H       
  23 H23            3.7195     4.7466    -3.8877 H       
  24 H24            5.9101     1.0772    -3.9282 H       
  25 H25            5.2292     0.6500    -1.6017 H       
  26 H26           -1.5113    -0.8975    -0.8712 H       
  27 H27            6.0623     3.6734    -5.4202 H       
@<TRIPOS>BOND
   1    1    2 ar
   2    1    6 ar
   3    1   16 1
   4    2    3 ar
   5    2   14 1
   6    3    4 ar
   7    3   17 1
   8    4    5 ar
   9    4   18 1
  10    5    6 ar
  11    5    7 1
  12    6   19 1
  13    7    8 1
  14    7   20 1
  15    7   21 1
  16    8    9 ar
  17    8   13 ar
  18    9   10 ar
  19    9   22 1
  20   10   11 ar
  21   10   23 1
  22   11   12 ar
  23   11   15 1
  24   12   13 ar
  25   12   24 1
  26   13   25 1
  27   14   26 1
  28   15   27 1

#	End of record

