#	Name: ASD01410723
#	Creating user name:	WinNT
#	Creation time:	15. 06. 2019 19:18

#	Modifying user name:	WinNT
#	Modification time:	15. 06. 2019 19:18

#	Program:	/corina/corina34_cracker 3.40 0067  02.08.2006

@<TRIPOS>MOLECULE
ASD01410723
  34   34    0    0    0
SMALL
NO_CHARGES


@<TRIPOS>ATOM
   1 C1            -0.0008     0.6993    -0.7178 C.ar    
   2 C2            -0.0135    -0.6927    -0.6603 C.ar    
   3 C3            -1.1858    -1.3669    -0.4838 C.ar    
   4 C4            -2.3908    -0.6610    -0.3580 C.ar    
   5 C5            -2.3828     0.7462    -0.4151 C.ar    
   6 C6            -1.1807     1.4170    -0.5904 C.ar    
   7 O7             1.1732     1.3567    -0.8939 O.3     
   8 C8             2.3524     0.5583    -1.0122 C.3     
   9 C9             3.5674     1.4683    -1.2036 C.3     
  10 O10            3.3977     2.2461    -2.3904 O.3     
  11 O11            3.6926     2.3389    -0.0774 O.3     
  12 C12            5.0221     2.8131     0.1458 C.3     
  13 C13            4.5800     2.9293    -2.8115 C.3     
  14 Cl14          -1.1554     3.1513    -0.6625 Cl      
  15 N15           -3.5684     1.4573    -0.2924 N.pl3   
  16 C16           -3.6501    -1.3826    -0.1690 C.2     
  17 O17           -4.6700    -0.7704     0.0713 O.2     
  18 C18           -3.6801    -2.8857    -0.2727 C.3     
  19 H19            0.9115    -1.2418    -0.7566 H       
  20 H20           -1.1861    -2.4461    -0.4411 H       
  21 H21            2.4819    -0.0349    -0.1070 H       
  22 H22            2.2569    -0.1058    -1.8713 H       
  23 H23            4.4669     0.8593    -1.2939 H       
  24 H24            5.3512     3.3915    -0.7175 H       
  25 H25            5.0383     3.4447     1.0340 H       
  26 H26            5.6908     1.9646     0.2910 H       
  27 H27            4.7494     3.7927    -2.1682 H       
  28 H28            5.4330     2.2540    -2.7453 H       
  29 H29            4.4594     3.2624    -3.8424 H       
  30 H30           -4.4130     1.0337    -0.5119 H       
  31 H31           -3.5524     2.3779     0.0127 H       
  32 H32           -3.4942    -3.3214     0.7090 H       
  33 H33           -4.6579    -3.2056    -0.6329 H       
  34 H34           -2.9100    -3.2173    -0.9691 H       
@<TRIPOS>BOND
   1    1    2 ar
   2    1    7 1
   3    1    6 ar
   4    2    3 ar
   5    2   19 1
   6    3    4 ar
   7    3   20 1
   8    4    5 ar
   9    4   16 1
  10    5    6 ar
  11    5   15 1
  12    6   14 1
  13    7    8 1
  14    8    9 1
  15    8   21 1
  16    8   22 1
  17    9   10 1
  18    9   11 1
  19    9   23 1
  20   10   13 1
  21   11   12 1
  22   12   24 1
  23   12   25 1
  24   12   26 1
  25   13   27 1
  26   13   28 1
  27   13   29 1
  28   15   30 1
  29   15   31 1
  30   16   17 2
  31   16   18 1
  32   18   32 1
  33   18   33 1
  34   18   34 1

#	End of record

