#	Name: ASD01200076
#	Creating user name:	WinNT
#	Creation time:	15. 06. 2019 19:08

#	Modifying user name:	WinNT
#	Modification time:	15. 06. 2019 19:08

#	Program:	/corina/corina34_cracker 3.40 0067  02.08.2006

@<TRIPOS>MOLECULE
ASD01200076
  36   38    0    0    0
SMALL
NO_CHARGES


@<TRIPOS>ATOM
   1 C1             0.4755     1.4877    -1.4638 C.2     
   2 C2             0.3522     0.1661    -0.8133 C.ar    
   3 C3             1.4592    -0.6793    -0.7300 C.ar    
   4 C4             1.3361    -1.9157    -0.1187 C.ar    
   5 C5             0.1140    -2.3114     0.4092 C.ar    
   6 C6            -0.9835    -1.4749     0.3272 C.ar    
   7 C7            -0.8707    -0.2383    -0.2751 C.ar    
   8 O8             1.5427     1.8398    -1.9273 O.2     
   9 N9            -0.5967     2.3000    -1.5480 N.am    
  10 S10            0.9555     4.1652    -2.8457 S.3     
  11 C11           -0.4808     3.5418    -2.1592 C.2     
  12 N12           -1.4462     4.3968    -2.2926 N.2     
  13 C13           -1.1590     5.5320    -2.9017 C.2     
  14 C14            0.1092     5.6415    -3.3020 C.2     
  15 C15           -2.1807     6.6167    -3.1268 C.3     
  16 O16            2.4115    -2.7423    -0.0357 O.3     
  17 C17            3.2275    -2.6211     1.0441 C.ar    
  18 C18            2.8941    -1.7517     2.0726 C.ar    
  19 C19            3.7267    -1.6303     3.1706 C.ar    
  20 C20            4.8920    -2.3759     3.2422 C.ar    
  21 C21            5.2246    -3.2418     2.2176 C.ar    
  22 C22            4.3923    -3.3709     1.1222 C.ar    
  23 F23            3.4036    -0.7841     4.1730 F       
  24 H24            2.4089    -0.3704    -1.1412 H       
  25 H25            0.0206    -3.2764     0.8851 H       
  26 H26           -1.9312    -1.7883     0.7396 H       
  27 H27           -1.7291     0.4144    -0.3337 H       
  28 H28           -1.4492     2.0174    -1.1817 H       
  29 H29            0.5415     6.4875    -3.8156 H       
  30 H30           -2.1780     7.3003    -2.2778 H       
  31 H31           -1.9339     7.1653    -4.0358 H       
  32 H32           -3.1692     6.1690    -3.2297 H       
  33 H33            1.9858    -1.1701     2.0159 H       
  34 H34            5.5416    -2.2802     4.0997 H       
  35 H35            6.1338    -3.8218     2.2755 H       
  36 H36            4.6511    -4.0514     0.3246 H       
@<TRIPOS>BOND
   1    1    2 1
   2    1    8 2
   3    1    9 am
   4    2    3 ar
   5    2    7 ar
   6    3    4 ar
   7    3   24 1
   8    4    5 ar
   9    4   16 1
  10    5    6 ar
  11    5   25 1
  12    6    7 ar
  13    6   26 1
  14    7   27 1
  15    9   11 1
  16    9   28 1
  17   10   11 1
  18   10   14 1
  19   11   12 2
  20   12   13 1
  21   13   14 2
  22   13   15 1
  23   14   29 1
  24   15   30 1
  25   15   31 1
  26   15   32 1
  27   16   17 1
  28   17   18 ar
  29   17   22 ar
  30   18   19 ar
  31   18   33 1
  32   19   20 ar
  33   19   23 1
  34   20   21 ar
  35   20   34 1
  36   21   22 ar
  37   21   35 1
  38   22   36 1

#	End of record

