#	Name: ASD01813771
#	Creating user name:	WinNT
#	Creation time:	15. 06. 2019 19:31

#	Modifying user name:	WinNT
#	Modification time:	15. 06. 2019 19:31

#	Program:	/corina/corina34_cracker 3.40 0067  02.08.2006

@<TRIPOS>MOLECULE
ASD01813771
  41   44    0    0    0
SMALL
NO_CHARGES


@<TRIPOS>ATOM
   1 C1             0.0960     1.4749     0.3439 C.ar    
   2 C2             0.0782     0.0876     0.3362 C.ar    
   3 C3             1.2490    -0.6311     0.2096 C.ar    
   4 C4             2.4664     0.0381     0.0877 C.ar    
   5 C5             2.4796     1.4428     0.0959 C.ar    
   6 C6             1.2875     2.1556     0.2248 C.ar    
   7 N7             3.6440    -0.6677    -0.0385 N.pl3   
   8 C8             4.8374    -0.0726    -0.1570 C.2     
   9 C9             4.9772     1.3008    -0.1616 C.2     
  10 C10            3.7737     2.1384    -0.0338 C.2     
  11 O11            3.8438     3.3549    -0.0326 O.2     
  12 C12            6.3054     1.9163    -0.2927 C.2     
  13 O13            6.4289     3.2587    -0.2958 O.3     
  14 O14            7.2926     1.2148    -0.3984 O.2     
  15 C15            3.5871    -2.1316    -0.0427 C.3     
  16 C16            3.4445    -2.6248    -1.4595 C.ar    
  17 C17            4.5577    -2.7729    -2.2737 C.ar    
  18 N18            4.3977    -3.2077    -3.5117 N.ar    
  19 C19            3.1913    -3.5007    -3.9764 C.ar    
  20 N20            2.1073    -3.3699    -3.2248 N.ar    
  21 C21            2.1980    -2.9459    -1.9761 C.ar    
  22 F22            1.2161    -1.9816     0.2041 F       
  23 C23            3.0510    -3.9863    -5.3718 C.ar    
  24 C24            1.7964    -4.3055    -5.8979 C.ar    
  25 C25            1.7109    -4.7538    -7.2008 C.ar    
  26 N26            2.7922    -4.8824    -7.9447 N.ar    
  27 C27            3.9943    -4.5921    -7.4868 C.ar    
  28 C28            4.1691    -4.1314    -6.1971 C.ar    
  29 H29           -0.8293     2.0237     0.4392 H       
  30 H30           -0.8621    -0.4352     0.4306 H       
  31 H31            1.2986     3.2355     0.2307 H       
  32 H32            5.7202    -0.6874    -0.2519 H       
  33 H33            7.3226     3.6171    -0.3845 H       
  34 H34            4.5034    -2.5321     0.3910 H       
  35 H35            2.7315    -2.4636     0.5454 H       
  36 H36            5.5431    -2.5354    -1.9009 H       
  37 H37            1.3112    -2.8417    -1.3685 H       
  38 H38            0.9069    -4.2032    -5.2940 H       
  39 H39            0.7456    -5.0029    -7.6162 H       
  40 H40            4.8531    -4.7121    -8.1306 H       
  41 H41            5.1565    -3.8953    -5.8287 H       
@<TRIPOS>BOND
   1    1    2 ar
   2    1    6 ar
   3    1   29 1
   4    2    3 ar
   5    2   30 1
   6    3   22 1
   7    3    4 ar
   8    4    5 ar
   9    4    7 1
  10    5    6 ar
  11    5   10 1
  12    6   31 1
  13    7    8 1
  14    7   15 1
  15    8    9 2
  16    8   32 1
  17    9   10 1
  18    9   12 1
  19   10   11 2
  20   12   13 1
  21   12   14 2
  22   13   33 1
  23   15   16 1
  24   15   34 1
  25   15   35 1
  26   16   17 ar
  27   16   21 ar
  28   17   18 ar
  29   17   36 1
  30   18   19 ar
  31   19   20 ar
  32   19   23 1
  33   20   21 ar
  34   21   37 1
  35   23   24 ar
  36   23   28 ar
  37   24   25 ar
  38   24   38 1
  39   25   26 ar
  40   25   39 1
  41   26   27 ar
  42   27   28 ar
  43   27   40 1
  44   28   41 1

#	End of record

