#	Name: ASD01510108
#	Creating user name:	WinNT
#	Creation time:	15. 06. 2019 19:21

#	Modifying user name:	WinNT
#	Modification time:	15. 06. 2019 19:21

#	Program:	/corina/corina34_cracker 3.40 0067  02.08.2006

@<TRIPOS>MOLECULE
ASD01510108
  52   54    0    0    0
SMALL
NO_CHARGES


@<TRIPOS>ATOM
   1 N1            -5.0371     1.7627     3.9075 N.3     
   2 C2            -4.3488     0.4662     3.9648 C.3     
   3 C3            -4.5189    -0.2514     2.6506 C.2     
   4 O4            -5.1513     0.2663     1.7544 O.2     
   5 N5            -3.9683    -1.4684     2.4711 N.am    
   6 C6            -4.2050    -2.1756     1.2871 C.ar    
   7 C7            -4.3111    -1.4955     0.0804 C.ar    
   8 C8            -4.5449    -2.1928    -1.0898 C.ar    
   9 C9            -4.6744    -3.5675    -1.0641 C.ar    
  10 C10           -4.5694    -4.2546     0.1404 C.ar    
  11 C11           -4.3284    -3.5571     1.3165 C.ar    
  12 S12           -4.7353    -6.0085     0.1729 S.3     
  13 C13           -6.4382    -6.2383     0.5626 C.ar    
  14 C14           -7.2957    -5.1462     0.6454 C.ar    
  15 C15           -8.6271    -5.3730     0.9545 C.ar    
  16 C16           -9.0622    -6.6740     1.1708 C.ar    
  17 N17           -8.2208    -7.6940     1.0852 N.ar    
  18 C18           -6.9448    -7.5173     0.7863 C.ar    
  19 O19           -6.1177    -8.5910     0.7086 O.3     
  20 C20           -6.6943    -9.8739     0.9612 C.3     
  21 N21          -10.3993    -6.9095     1.4820 N.3     
  22 C22          -10.6511    -8.3449     1.6713 C.3     
  23 C23          -12.1088    -8.5537     2.0886 C.3     
  24 N24          -12.9954    -7.9980     1.0567 N.3     
  25 C25          -12.7436    -6.5626     0.8674 C.3     
  26 C26          -11.2859    -6.3538     0.4502 C.3     
  27 C27          -14.4056    -8.2463     1.3849 C.3     
  28 H28           -4.9377     2.2636     4.7777 H       
  29 H29           -4.7034     2.3153     3.1320 H       
  30 H30           -3.2878     0.6263     4.1567 H       
  31 H31           -4.7760    -0.1369     4.7660 H       
  32 H32           -3.4080    -1.8540     3.1626 H       
  33 H33           -4.2110    -0.4204     0.0566 H       
  34 H34           -4.6269    -1.6614    -2.0264 H       
  35 H35           -4.8578    -4.1094    -1.9801 H       
  36 H36           -4.2463    -4.0880     2.2535 H       
  37 H37           -6.9318    -4.1441     0.4729 H       
  38 H38           -9.3191    -4.5469     1.0269 H       
  39 H39           -5.9269   -10.6422     0.8669 H       
  40 H40           -7.1070    -9.8945     1.9699 H       
  41 H41           -7.4889   -10.0635     0.2396 H       
  42 H42          -10.4609    -8.8737     0.7374 H       
  43 H43           -9.9915    -8.7303     2.4488 H       
  44 H44          -12.3055    -9.6198     2.2014 H       
  45 H45          -12.2918    -8.0475     3.0364 H       
  46 H46          -13.4032    -6.1771     0.0900 H       
  47 H47          -12.9338    -6.0338     1.8014 H       
  48 H48          -11.0892    -5.2876     0.3373 H       
  49 H49          -11.1029    -6.8600    -0.4976 H       
  50 H50          -14.6442    -7.7782     2.3399 H       
  51 H51          -15.0398    -7.8248     0.6050 H       
  52 H52          -14.5790    -9.3203     1.4533 H       
@<TRIPOS>BOND
   1    1    2 1
   2    1   28 1
   3    1   29 1
   4    2    3 1
   5    2   30 1
   6    2   31 1
   7    3    4 2
   8    3    5 am
   9    5    6 1
  10    5   32 1
  11    6    7 ar
  12    6   11 ar
  13    7    8 ar
  14    7   33 1
  15    8    9 ar
  16    8   34 1
  17    9   10 ar
  18    9   35 1
  19   10   11 ar
  20   10   12 1
  21   11   36 1
  22   12   13 1
  23   13   14 ar
  24   13   18 ar
  25   14   15 ar
  26   14   37 1
  27   15   16 ar
  28   15   38 1
  29   16   17 ar
  30   16   21 1
  31   17   18 ar
  32   18   19 1
  33   19   20 1
  34   20   39 1
  35   20   40 1
  36   20   41 1
  37   21   22 1
  38   21   26 1
  39   22   23 1
  40   22   42 1
  41   22   43 1
  42   23   24 1
  43   23   44 1
  44   23   45 1
  45   24   25 1
  46   24   27 1
  47   25   26 1
  48   25   46 1
  49   25   47 1
  50   26   48 1
  51   26   49 1
  52   27   50 1
  53   27   51 1
  54   27   52 1

#	End of record

