#	Name: ASD02030105
#	Creating user name:	WinNT
#	Creation time:	15. 06. 2019 20:14

#	Modifying user name:	WinNT
#	Modification time:	15. 06. 2019 20:14

#	Program:	/corina/corina34_cracker 3.40 0067  02.08.2006

@<TRIPOS>MOLECULE
ASD02030105
  55   58    0    0    0
SMALL
NO_CHARGES


@<TRIPOS>ATOM
   1 N1            -0.1362     1.6277    -0.2921 N.am    
   2 C2            -0.2333     0.1643    -0.3864 C.3     
   3 C3            -1.0511    -0.3503     0.8047 C.3     
   4 N4            -2.2884     0.4369     0.9000 N.am    
   5 C5            -2.1913     1.9003     0.9944 C.3     
   6 C6            -1.3733     2.4146    -0.1911 C.3     
   7 C7             1.0660     2.2368    -0.2926 C.2     
   8 C8             2.3037     1.4296    -0.2473 C.2     
   9 N9             3.5264     1.8950    -0.1089 N.2     
  10 N10            2.3776     0.0887    -0.3344 N.2     
  11 C11            3.6425    -0.2371    -0.2529 C.2     
  12 N12            4.3490     0.9032    -0.1121 N.pl3   
  13 O13            1.1327     3.4500    -0.3303 O.2     
  14 C14           -3.4907    -0.1722     0.9006 C.2     
  15 C15           -3.5718    -1.6512     0.8701 C.ar    
  16 O16           -4.5081     0.4917     0.9260 O.2     
  17 C17           -1.0292     3.8898     0.0239 C.3     
  18 C18           -2.1814     2.2548    -1.4804 C.3     
  19 C19            5.7422     0.9940     0.0097 C.ar    
  20 C20            6.3489     2.2351     0.1496 C.ar    
  21 C21            7.7221     2.3213     0.2694 C.ar    
  22 C22            8.4927     1.1733     0.2497 C.ar    
  23 C23            7.8914    -0.0642     0.1106 C.ar    
  24 C24            6.5181    -0.1574    -0.0035 C.ar    
  25 N25           -2.4989    -2.3752     1.1686 N.ar    
  26 C26           -2.5297    -3.6940     1.1532 C.ar    
  27 C27           -3.6976    -4.3754     0.8206 C.ar    
  28 C28           -4.8355    -3.6546     0.5038 C.ar    
  29 C29           -4.7728    -2.2689     0.5345 C.ar    
  30 O30           -1.4103    -4.3945     1.4645 O.3     
  31 C31           -0.2437    -3.6390     1.7966 C.3     
  32 H32           -0.7300    -0.1101    -1.3170 H       
  33 H33            0.7656    -0.2711    -0.3598 H       
  34 H34           -1.2970    -1.4013     0.6528 H       
  35 H35           -0.4732    -0.2361     1.7218 H       
  36 H36           -3.1902     2.3357     0.9677 H       
  37 H37           -1.6946     2.1748     1.9250 H       
  38 H38            4.0470    -1.2379    -0.2887 H       
  39 H39           -0.2738     3.9766     0.8049 H       
  40 H40           -0.6428     4.3117    -0.9039 H       
  41 H41           -1.9259     4.4321     0.3239 H       
  42 H42           -3.1060     2.8270    -1.4030 H       
  43 H43           -1.5965     2.6220    -2.3237 H       
  44 H44           -2.4176     1.2017    -1.6331 H       
  45 H45            5.7476     3.1321     0.1643 H       
  46 H46            8.1946     3.2864     0.3782 H       
  47 H47            9.5664     1.2433     0.3428 H       
  48 H48            8.4959    -0.9590     0.0955 H       
  49 H49            6.0491    -1.1241    -0.1118 H       
  50 H50           -3.7151    -5.4552     0.8098 H       
  51 H51           -5.7536    -4.1597     0.2425 H       
  52 H52           -5.6431    -1.6769     0.2925 H       
  53 H53            0.5771    -4.3192     2.0240 H       
  54 H54            0.0319    -3.0064     0.9528 H       
  55 H55           -0.4502    -3.0152     2.6662 H       
@<TRIPOS>BOND
   1    1    2 1
   2    1    7 am
   3    1    6 1
   4    2    3 1
   5    2   32 1
   6    2   33 1
   7    3    4 1
   8    3   34 1
   9    3   35 1
  10    4    5 1
  11    4   14 am
  12    5    6 1
  13    5   36 1
  14    5   37 1
  15    6   17 1
  16    6   18 1
  17    7    8 1
  18    7   13 2
  19    8    9 2
  20    8   10 1
  21    9   12 1
  22   10   11 2
  23   11   12 1
  24   11   38 1
  25   12   19 1
  26   14   15 1
  27   14   16 2
  28   15   25 ar
  29   15   29 ar
  30   17   39 1
  31   17   40 1
  32   17   41 1
  33   18   42 1
  34   18   43 1
  35   18   44 1
  36   19   20 ar
  37   19   24 ar
  38   20   21 ar
  39   20   45 1
  40   21   22 ar
  41   21   46 1
  42   22   23 ar
  43   22   47 1
  44   23   24 ar
  45   23   48 1
  46   24   49 1
  47   25   26 ar
  48   26   27 ar
  49   26   30 1
  50   27   28 ar
  51   27   50 1
  52   28   29 ar
  53   28   51 1
  54   29   52 1
  55   30   31 1
  56   31   53 1
  57   31   54 1
  58   31   55 1

#	End of record

