#	Name: ASD01152578
#	Creating user name:	WinNT
#	Creation time:	15. 06. 2019 19:06

#	Modifying user name:	WinNT
#	Modification time:	15. 06. 2019 19:06

#	Program:	/corina/corina34_cracker 3.40 0067  02.08.2006

@<TRIPOS>MOLECULE
ASD01152578
  52   54    0    0    0
SMALL
NO_CHARGES


@<TRIPOS>ATOM
   1 C1             0.5641     1.0236     0.6482 C.2     
   2 N2             0.4037    -0.2632     0.4913 N.2     
   3 N3            -0.8602    -0.8265     0.3171 N.am    
   4 C4            -1.9937    -0.1313     0.5077 C.2     
   5 C5            -1.9411     1.2799     1.0442 C.3     
   6 C6            -0.6242     1.8901     0.6196 C.2     
   7 C7            -2.0262     1.2568     2.5717 C.3     
   8 O8            -0.5502     3.0473     0.2610 O.2     
   9 O9             1.8021     1.5501     0.8394 O.3     
  10 C10           -0.9511    -2.1677    -0.0717 C.ar    
  11 O11           -3.0639    -0.6385     0.2475 O.2     
  12 C12           -2.0968     2.6693     3.0922 C.ar    
  13 C13           -1.7975    -3.0321     0.6080 C.ar    
  14 C14           -0.1982    -2.6341    -1.1427 C.ar    
  15 C15           -0.2874    -3.9578    -1.5270 C.ar    
  16 C16           -1.1254    -4.8224    -0.8487 C.ar    
  17 C17           -1.8846    -4.3613     0.2192 C.ar    
  18 C18           -3.3241     3.2819     3.2637 C.ar    
  19 C19           -0.9345     3.3499     3.4033 C.ar    
  20 C20           -0.9986     4.6453     3.8812 C.ar    
  21 C21           -3.3895     4.5774     3.7411 C.ar    
  22 C22           -2.2264     5.2609     4.0477 C.ar    
  23 Cl23          -2.3077     6.8878     4.6479 Cl      
  24 C24            2.9000     0.6356     0.8593 C.3     
  25 C25            3.4464     0.4639    -0.5595 C.3     
  26 C26            4.0029     1.1826     1.7678 C.3     
  27 N27           -2.7365    -5.2364     0.9024 N.am    
  28 C28           -2.3773    -6.5228     1.0828 C.2     
  29 O29           -1.3559    -6.9432     0.5817 O.2     
  30 C30           -3.2447    -7.4388     1.9072 C.3     
  31 H31           -2.7682     1.8609     0.6365 H       
  32 H32           -2.9192     0.7118     2.8777 H       
  33 H33           -1.1428     0.7638     2.9774 H       
  34 H34           -2.3868    -2.6713     1.4380 H       
  35 H35            0.4571    -1.9608    -1.6752 H       
  36 H36            0.2987    -4.3179    -2.3595 H       
  37 H37           -1.1934    -5.8566    -1.1522 H       
  38 H38           -4.2321     2.7483     3.0244 H       
  39 H39            0.0239     2.8693     3.2733 H       
  40 H40           -0.0905     5.1766     4.1249 H       
  41 H41           -4.3484     5.0560     3.8747 H       
  42 H42            2.5625    -0.3291     1.2379 H       
  43 H43            4.2839    -0.2336    -0.5443 H       
  44 H44            2.6607     0.0742    -1.2067 H       
  45 H45            3.7839     1.4287    -0.9381 H       
  46 H46            3.6137     1.3050     2.7785 H       
  47 H47            4.8404     0.4851     1.7829 H       
  48 H48            4.3404     2.1474     1.3891 H       
  49 H49           -3.5855    -4.9171     1.2460 H       
  50 H50           -4.2356    -7.5027     1.4577 H       
  51 H51           -2.7960    -8.4316     1.9402 H       
  52 H52           -3.3297    -7.0446     2.9198 H       
@<TRIPOS>BOND
   1    1    2 2
   2    1    9 1
   3    1    6 1
   4    2    3 1
   5    3    4 am
   6    3   10 1
   7    4    5 1
   8    4   11 2
   9    5    6 1
  10    5    7 1
  11    5   31 1
  12    6    8 2
  13    7   12 1
  14    7   32 1
  15    7   33 1
  16    9   24 1
  17   10   13 ar
  18   10   14 ar
  19   12   18 ar
  20   12   19 ar
  21   13   17 ar
  22   13   34 1
  23   14   15 ar
  24   14   35 1
  25   15   16 ar
  26   15   36 1
  27   16   17 ar
  28   16   37 1
  29   17   27 1
  30   18   21 ar
  31   18   38 1
  32   19   20 ar
  33   19   39 1
  34   20   22 ar
  35   20   40 1
  36   21   22 ar
  37   21   41 1
  38   22   23 1
  39   24   25 1
  40   24   26 1
  41   24   42 1
  42   25   43 1
  43   25   44 1
  44   25   45 1
  45   26   46 1
  46   26   47 1
  47   26   48 1
  48   27   28 am
  49   27   49 1
  50   28   29 2
  51   28   30 1
  52   30   50 1
  53   30   51 1
  54   30   52 1

#	End of record

