#	Name: ASD00311303
#	Creating user name:	WinNT
#	Creation time:	15. 06. 2019 18:34

#	Modifying user name:	WinNT
#	Modification time:	15. 06. 2019 18:34

#	Program:	/corina/corina34_cracker 3.40 0067  02.08.2006

@<TRIPOS>MOLECULE
ASD00311303
  40   43    0    0    0
SMALL
NO_CHARGES


@<TRIPOS>ATOM
   1 C1            -0.0167     1.3779     0.0096 C.2     
   2 C2             0.0021    -0.0041     0.0020 C.2     
   3 C3             1.2588    -0.6766    -0.0140 C.2     
   4 C4             2.4315     0.0675    -0.0217 C.2     
   5 C5             2.3574     1.4754    -0.0134 C.2     
   6 N6             1.1649     2.0906     0.0022 N.am    
   7 C7            -1.3431    -0.5749     0.0123 C.2     
   8 C8            -2.3222     0.3256     0.0268 C.2     
   9 S9            -1.6794     1.9560     0.0358 S.3     
  10 O10            3.3823     2.1375    -0.0196 O.2     
  11 C11            3.7477    -0.6118    -0.0379 C.ar    
  12 C12            4.5930    -0.4743    -1.1387 C.ar    
  13 C13            5.8181    -1.1092    -1.1477 C.ar    
  14 C14            6.2085    -1.8807    -0.0677 C.ar    
  15 C15            5.3743    -2.0209     1.0271 C.ar    
  16 C16            4.1491    -1.3867     1.0501 C.ar    
  17 C17           -1.5955    -2.0354     0.0070 C.ar    
  18 C18           -1.2006    -2.8207     1.0952 C.ar    
  19 C19           -1.4404    -4.1844     1.0818 C.ar    
  20 C20           -2.0681    -4.7669    -0.0041 C.ar    
  21 C21           -2.4599    -3.9933    -1.0818 C.ar    
  22 C22           -2.2323    -2.6315    -1.0793 C.ar    
  23 O23           -0.5835    -2.2474     2.1616 O.3     
  24 C24           -0.2088    -3.1117     3.2361 C.3     
  25 O25            1.3089    -2.0290    -0.0214 O.3     
  26 H26            1.1327     3.0600     0.0077 H       
  27 H27           -3.3748     0.0837     0.0360 H       
  28 H28            4.2892     0.1275    -1.9825 H       
  29 H29            6.4734    -1.0038    -1.9996 H       
  30 H30            7.1681    -2.3760    -0.0795 H       
  31 H31            5.6846    -2.6245     1.8671 H       
  32 H32            3.5005    -1.4935     1.9070 H       
  33 H33           -1.1366    -4.7938     1.9200 H       
  34 H34           -2.2530    -5.8310    -0.0109 H       
  35 H35           -2.9496    -4.4555    -1.9262 H       
  36 H36           -2.5435    -2.0298    -1.9204 H       
  37 H37           -1.0977    -3.5975     3.6386 H       
  38 H38            0.4842    -3.8686     2.8689 H       
  39 H39            0.2730    -2.5281     4.0207 H       
  40 H40            2.2062    -2.3894    -0.0322 H       
@<TRIPOS>BOND
   1    1    2 2
   2    1    6 1
   3    1    9 1
   4    2    3 1
   5    2    7 1
   6    3    4 2
   7    3   25 1
   8    4    5 1
   9    4   11 1
  10    5    6 am
  11    5   10 2
  12    6   26 1
  13    7    8 2
  14    7   17 1
  15    8    9 1
  16    8   27 1
  17   11   12 ar
  18   11   16 ar
  19   12   13 ar
  20   12   28 1
  21   13   14 ar
  22   13   29 1
  23   14   15 ar
  24   14   30 1
  25   15   16 ar
  26   15   31 1
  27   16   32 1
  28   17   18 ar
  29   17   22 ar
  30   18   19 ar
  31   18   23 1
  32   19   20 ar
  33   19   33 1
  34   20   21 ar
  35   20   34 1
  36   21   22 ar
  37   21   35 1
  38   22   36 1
  39   23   24 1
  40   24   37 1
  41   24   38 1
  42   24   39 1
  43   25   40 1

#	End of record

