#	Name: ASD02039070
#	Creating user name:	WinNT
#	Creation time:	15. 06. 2019 20:17

#	Modifying user name:	WinNT
#	Modification time:	15. 06. 2019 20:17

#	Program:	/corina/corina34_cracker 3.40 0067  02.08.2006

@<TRIPOS>MOLECULE
ASD02039070
  50   54    0    0    0
SMALL
NO_CHARGES


@<TRIPOS>ATOM
   1 N1            -0.2485     1.2352     0.3955 N.2     
   2 N2            -0.2924    -0.0406     0.5550 N.2     
   3 C3             0.9750     1.5920     0.0889 C.2     
   4 O4             1.7217     0.4725     0.0591 O.3     
   5 C5             0.8906    -0.5448     0.3585 C.2     
   6 N6             1.4164     2.8794    -0.1584 N.pl3   
   7 C7             0.4997     3.9362    -0.2086 C.ar    
   8 C8             1.2638    -2.0020     0.4496 C.3     
   9 O9             1.0991    -2.6168    -0.8299 O.3     
  10 C10            1.3955    -3.9405    -0.9213 C.ar    
  11 C11            1.2574    -4.5934    -2.1299 C.ar    
  12 C12            1.8425    -4.6298     0.2032 C.ar    
  13 C13            2.1483    -5.9710     0.1290 C.ar    
  14 C14            2.0112    -6.6490    -1.0774 C.ar    
  15 C15            1.5643    -5.9550    -2.2178 C.ar    
  16 C16           -0.8056     3.7046    -0.6227 C.ar    
  17 C17            0.8935     5.2157     0.1612 C.ar    
  18 C18           -0.0113     6.2575     0.1114 C.ar    
  19 C19           -1.3135     6.0265    -0.3079 C.ar    
  20 C20           -1.7092     4.7475    -0.6720 C.ar    
  21 N21            2.3120    -7.9927    -1.1722 N.am    
  22 C22            2.1799    -8.6506    -2.3372 C.2     
  23 C23            1.7313    -8.0018    -3.5075 C.2     
  24 C24            1.4240    -6.6814    -3.4813 C.2     
  25 O25            2.4547    -9.8372    -2.3840 O.2     
  26 O26           -2.2039     7.0529    -0.3567 O.3     
  27 C27           -2.1304     7.9118    -1.4070 C.ar    
  28 C28           -1.1865     7.7111    -2.4042 C.ar    
  29 C29           -1.1138     8.5858    -3.4709 C.ar    
  30 C30           -1.9806     9.6605    -3.5455 C.ar    
  31 C31           -2.9221     9.8628    -2.5532 C.ar    
  32 C32           -3.0028     8.9879    -1.4873 C.ar    
  33 H33            2.3612     3.0499    -0.2970 H       
  34 H34            2.3033    -2.0918     0.7648 H       
  35 H35            0.6197    -2.4972     1.1762 H       
  36 H36            0.9143    -4.0563    -3.0018 H       
  37 H37            1.9507    -4.1078     1.1424 H       
  38 H38            2.4948    -6.4955     1.0072 H       
  39 H39           -1.1136     2.7091    -0.9065 H       
  40 H40            1.9070     5.3956     0.4879 H       
  41 H41            0.2947     7.2525     0.3992 H       
  42 H42           -2.7229     4.5684    -0.9986 H       
  43 H43            2.6236    -8.4693    -0.3869 H       
  44 H44            1.6361    -8.5582    -4.4283 H       
  45 H45            1.0798    -6.1772    -4.3723 H       
  46 H46           -0.5090     6.8720    -2.3461 H       
  47 H47           -0.3791     8.4303    -4.2470 H       
  48 H48           -1.9219    10.3434    -4.3802 H       
  49 H49           -3.5979    10.7030    -2.6139 H       
  50 H50           -3.7386     9.1461    -0.7127 H       
@<TRIPOS>BOND
   1    1    2 1
   2    1    3 2
   3    2    5 2
   4    3    4 1
   5    3    6 1
   6    4    5 1
   7    5    8 1
   8    6    7 1
   9    6   33 1
  10    7   16 ar
  11    7   17 ar
  12    8    9 1
  13    8   34 1
  14    8   35 1
  15    9   10 1
  16   10   11 ar
  17   10   12 ar
  18   11   15 ar
  19   11   36 1
  20   12   13 ar
  21   12   37 1
  22   13   14 ar
  23   13   38 1
  24   14   15 ar
  25   14   21 1
  26   15   24 1
  27   16   20 ar
  28   16   39 1
  29   17   18 ar
  30   17   40 1
  31   18   19 ar
  32   18   41 1
  33   19   20 ar
  34   19   26 1
  35   20   42 1
  36   21   22 am
  37   21   43 1
  38   22   23 1
  39   22   25 2
  40   23   24 2
  41   23   44 1
  42   24   45 1
  43   26   27 1
  44   27   28 ar
  45   27   32 ar
  46   28   29 ar
  47   28   46 1
  48   29   30 ar
  49   29   47 1
  50   30   31 ar
  51   30   48 1
  52   31   32 ar
  53   31   49 1
  54   32   50 1

#	End of record

