#	Name: ASD01910230
#	Creating user name:	WinNT
#	Creation time:	15. 06. 2019 19:55

#	Modifying user name:	WinNT
#	Modification time:	15. 06. 2019 19:55

#	Program:	/corina/corina34_cracker 3.40 0067  02.08.2006

@<TRIPOS>MOLECULE
ASD01910230
  46   50    0    0    0
SMALL
NO_CHARGES


@<TRIPOS>ATOM
   1 C1             0.1886     1.1630    -0.0850 C.2     
   2 C2             1.3370     2.1385    -0.0577 C.3     
   3 C3             1.2710     3.0399    -1.2927 C.3     
   4 C4             2.4553     4.0092    -1.2827 C.3     
   5 C5             2.3759     4.8932    -0.0341 C.3     
   6 N6             2.2926     4.0300     1.1519 N.am    
   7 C7             1.2449     3.0013     1.2048 C.3     
   8 C8             3.1608     4.1790     2.1720 C.2     
   9 C9             2.9785     3.4032     3.4170 C.2     
  10 O10            4.0936     4.9513     2.0682 O.2     
  11 N11            0.2781    -0.1435    -0.1062 N.2     
  12 C12           -0.9966    -0.5946    -0.1251 C.2     
  13 N13           -1.7775     0.4544    -0.1144 N.2     
  14 O14           -1.1127     1.4685    -0.0864 O.3     
  15 C15           -1.4283    -2.0140    -0.1536 C.ar    
  16 C16           -2.7852    -2.3314    -0.1708 C.ar    
  17 C17           -3.1822    -3.6523    -0.1977 C.ar    
  18 C18           -2.2341    -4.6627    -0.2076 C.ar    
  19 C19           -0.8839    -4.3516    -0.1905 C.ar    
  20 C20           -0.4781    -3.0332    -0.1689 C.ar    
  21 F21           -2.6272    -5.9550    -0.2335 F       
  22 S22            4.1260     3.3550     4.7489 S.3     
  23 C23            3.0651     2.2624     5.6345 C.ar    
  24 C24            1.9272     2.0219     4.8503 C.ar    
  25 N25            1.9526     2.6690     3.6848 N.2     
  26 C26            3.1953     1.6637     6.8882 C.ar    
  27 C27            2.2062     0.8335     7.3603 C.ar    
  28 C28            1.0756     0.5893     6.5900 C.ar    
  29 C29            0.9274     1.1635     5.3672 C.ar    
  30 H30            2.2795     1.5910    -0.0568 H       
  31 H31            1.3115     2.4263    -2.1927 H       
  32 H32            0.3390     3.6051    -1.2804 H       
  33 H33            3.3875     3.4445    -1.2700 H       
  34 H34            2.4206     4.6351    -2.1744 H       
  35 H35            3.2678     5.5166     0.0295 H       
  36 H36            1.4893     5.5248    -0.0894 H       
  37 H37            0.2661     3.4787     1.2506 H       
  38 H38            1.3906     2.3764     2.0859 H       
  39 H39           -3.5248    -1.5444    -0.1628 H       
  40 H40           -4.2336    -3.8991    -0.2108 H       
  41 H41           -0.1482    -5.1422    -0.1983 H       
  42 H42            0.5744    -2.7915    -0.1557 H       
  43 H43            4.0736     1.8523     7.4878 H       
  44 H44            2.3083     0.3704     8.3307 H       
  45 H45            0.3038    -0.0645     6.9687 H       
  46 H46            0.0413     0.9609     4.7839 H       
@<TRIPOS>BOND
   1    1   11 2
   2    1    2 1
   3    1   14 1
   4    2    3 1
   5    2    7 1
   6    2   30 1
   7    3    4 1
   8    3   31 1
   9    3   32 1
  10    4    5 1
  11    4   33 1
  12    4   34 1
  13    5    6 1
  14    5   35 1
  15    5   36 1
  16    6    7 1
  17    6    8 am
  18    7   37 1
  19    7   38 1
  20    8    9 1
  21    8   10 2
  22    9   22 1
  23    9   25 2
  24   11   12 1
  25   12   13 2
  26   12   15 1
  27   13   14 1
  28   15   16 ar
  29   15   20 ar
  30   16   17 ar
  31   16   39 1
  32   17   18 ar
  33   17   40 1
  34   18   19 ar
  35   18   21 1
  36   19   20 ar
  37   19   41 1
  38   20   42 1
  39   22   23 1
  40   23   24 ar
  41   23   26 ar
  42   24   25 1
  43   24   29 ar
  44   26   27 ar
  45   26   43 1
  46   27   28 ar
  47   27   44 1
  48   28   29 ar
  49   28   45 1
  50   29   46 1

#	End of record

