#	Name: ASD03090489
#	Creating user name:	WinNT
#	Creation time:	15. 06. 2019 20:28

#	Modifying user name:	WinNT
#	Modification time:	15. 06. 2019 20:28

#	Program:	/corina/corina34_cracker 3.40 0067  02.08.2006

@<TRIPOS>MOLECULE
ASD03090489
  36   38    0    0    0
SMALL
NO_CHARGES


@<TRIPOS>ATOM
   1 C1            -0.0179     1.4708     0.0101 C.2     
   2 C2             0.0021    -0.0041     0.0020 C.ar    
   3 C3             1.2216    -0.6994    -0.0134 C.ar    
   4 C4             1.1931    -2.0673    -0.0205 C.ar    
   5 C5            -0.0362    -2.7260    -0.0123 C.ar    
   6 N6            -1.1746    -2.0446     0.0022 N.ar    
   7 C7            -1.1912    -0.7282     0.0153 C.ar    
   8 O8             1.0268     2.0931     0.0035 O.2     
   9 N9            -1.1941     2.1288     0.0193 N.am    
  10 S10           -0.0781    -4.4875    -0.0220 S.3     
  11 C11           -1.8675    -4.7594    -0.0062 C.3     
  12 F12           -2.4387    -4.1709    -1.1396 F       
  13 F13           -2.1305    -6.1335    -0.0116 F       
  14 F14           -2.4165    -4.1840     1.1448 F       
  15 C15           -1.2140     3.5936     0.0273 C.3     
  16 N16           -6.5411     5.3976     0.3357 N.pl3   
  17 C17           -6.6944     5.4441     1.6946 C.2     
  18 C18           -5.5590     5.0563     2.2967 C.2     
  19 C19           -4.6002     4.7352     1.2367 C.ar    
  20 C20           -3.2778     4.2873     1.2273 C.ar    
  21 C21           -2.6415     4.0766     0.0367 C.ar    
  22 C22           -3.2993     4.3043    -1.1644 C.ar    
  23 C23           -4.6038     4.7466    -1.1782 C.ar    
  24 C24           -5.2711     4.9678     0.0223 C.ar    
  25 H25            2.1610    -0.1667    -0.0198 H       
  26 H26            2.1138    -2.6316    -0.0327 H       
  27 H27           -2.1355    -0.2045     0.0317 H       
  28 H28           -2.0275     1.6324     0.0205 H       
  29 H29           -0.7010     3.9591     0.9169 H       
  30 H30           -0.7094     3.9687    -0.8630 H       
  31 H31           -7.2263     5.6290    -0.3107 H       
  32 H32           -7.5952     5.7482     2.2068 H       
  33 H33           -5.3853     4.9931     3.3607 H       
  34 H34           -2.7594     4.1089     2.1578 H       
  35 H35           -2.7830     4.1331    -2.0975 H       
  36 H36           -5.1068     4.9212    -2.1178 H       
@<TRIPOS>BOND
   1    1    2 1
   2    1    8 2
   3    1    9 am
   4    2    3 ar
   5    2    7 ar
   6    3    4 ar
   7    3   25 1
   8    4    5 ar
   9    4   26 1
  10    5    6 ar
  11    5   10 1
  12    6    7 ar
  13    7   27 1
  14    9   15 1
  15    9   28 1
  16   10   11 1
  17   11   12 1
  18   11   13 1
  19   11   14 1
  20   15   21 1
  21   15   29 1
  22   15   30 1
  23   16   17 1
  24   16   24 1
  25   16   31 1
  26   17   18 2
  27   17   32 1
  28   18   19 1
  29   18   33 1
  30   19   20 ar
  31   19   24 ar
  32   20   21 ar
  33   20   34 1
  34   21   22 ar
  35   22   23 ar
  36   22   35 1
  37   23   24 ar
  38   23   36 1

#	End of record

