#	Name: ASD01208937
#	Creating user name:	WinNT
#	Creation time:	15. 06. 2019 19:10

#	Modifying user name:	WinNT
#	Modification time:	15. 06. 2019 19:10

#	Program:	/corina/corina34_cracker 3.40 0067  02.08.2006

@<TRIPOS>MOLECULE
ASD01208937
  58   62    0    0    0
SMALL
NO_CHARGES


@<TRIPOS>ATOM
   1 C1            -2.1310     1.2646     1.7686 C.3     
   2 C2            -2.0860    -0.2520     1.5584 C.3     
   3 C3            -3.4979    -0.8218     1.7263 C.3     
   4 C4            -4.0315    -0.4427     3.1102 C.3     
   5 O5            -4.0179     0.9793     3.2514 O.3     
   6 C6            -2.7174     1.5632     3.1509 C.3     
   7 C7            -1.5746    -0.5584     0.1493 C.3     
   8 C8            -1.3068    -2.0592     0.0190 C.3     
   9 C9            -2.6145    -2.8075     0.0520 C.2     
  10 N10           -3.6085    -2.4648    -0.7912 N.am    
  11 C11           -4.8111    -3.1530    -0.7609 C.2     
  12 N12           -0.4622    -2.5028     1.1308 N.pl3   
  13 N13           -5.8191    -2.9044    -1.5218 N.2     
  14 C14           -6.9226    -3.6634    -1.3724 C.ar    
  15 C15           -6.7876    -4.6351    -0.3764 C.ar    
  16 S16           -5.1729    -4.4936     0.3171 S.3     
  17 C17           -8.1482    -3.5973    -2.0727 C.ar    
  18 C18           -9.1483    -4.4843    -1.7476 C.ar    
  19 C19           -8.9348    -5.4230    -0.7423 C.ar    
  20 N20           -7.7852    -5.4709    -0.0988 N.ar    
  21 C21           -0.8863    -2.8243     2.3709 C.2     
  22 C22            0.1977    -3.1823     3.0976 C.2     
  23 C23            1.3227    -3.0758     2.2733 C.2     
  24 N24            0.9277    -2.6739     1.0925 N.2     
  25 S25            2.9840    -3.4291     2.7421 S.o2    
  26 C26            3.1985    -5.1888     2.3572 C.3     
  27 O27            3.7716    -2.6286     1.8714 O.2     
  28 O28            3.0036    -3.2201     4.1475 O.2     
  29 C29            4.5205    -5.8443     2.7615 C.3     
  30 C30            3.2388    -6.1689     3.5313 C.3     
  31 O31           -2.7725    -3.7179     0.8374 O.2     
  32 O32           -9.9210    -6.2984    -0.4209 O.3     
  33 C33           -9.6413    -7.2375     0.6192 C.3     
  34 H34           -1.1216     1.6712     1.7056 H       
  35 H35           -2.7568     1.7203     1.0013 H       
  36 H36           -1.4209    -0.7026     2.2950 H       
  37 H37           -4.1513    -0.4082     0.9581 H       
  38 H38           -3.4661    -1.9073     1.6330 H       
  39 H39           -5.0523    -0.8090     3.2190 H       
  40 H40           -3.4007    -0.8903     3.8782 H       
  41 H41           -2.0694     1.1418     3.9194 H       
  42 H42           -2.7916     2.6418     3.2890 H       
  43 H43           -2.3245    -0.2583    -0.5826 H       
  44 H44           -0.6512    -0.0077    -0.0299 H       
  45 H45           -0.7987    -2.2570    -0.9248 H       
  46 H46           -3.4821    -1.7366    -1.4194 H       
  47 H47           -8.2974    -2.8625    -2.8499 H       
  48 H48          -10.0935    -4.4522    -2.2691 H       
  49 H49           -1.9077    -2.8000     2.7208 H       
  50 H50            0.1946    -3.4949     4.1313 H       
  51 H51            2.7301    -5.5284     1.4334 H       
  52 H52            4.9217    -6.6155     2.1039 H       
  53 H53            5.2614    -5.2182     3.2587 H       
  54 H54            3.1364    -5.7564     4.5350 H       
  55 H55            2.7967    -7.1537     3.3802 H       
  56 H56           -8.7864    -7.8509     0.3347 H       
  57 H57           -9.4135    -6.7018     1.5407 H       
  58 H58          -10.5107    -7.8761     0.7756 H       
@<TRIPOS>BOND
   1    1    2 1
   2    1    6 1
   3    1   34 1
   4    1   35 1
   5    2    3 1
   6    2    7 1
   7    2   36 1
   8    3    4 1
   9    3   37 1
  10    3   38 1
  11    4    5 1
  12    4   39 1
  13    4   40 1
  14    5    6 1
  15    6   41 1
  16    6   42 1
  17    7    8 1
  18    7   43 1
  19    7   44 1
  20    8    9 1
  21    8   12 1
  22    8   45 1
  23    9   10 am
  24    9   31 2
  25   10   11 1
  26   10   46 1
  27   11   13 2
  28   11   16 1
  29   12   21 1
  30   12   24 1
  31   13   14 1
  32   14   15 ar
  33   14   17 ar
  34   15   16 1
  35   15   20 ar
  36   17   18 ar
  37   17   47 1
  38   18   19 ar
  39   18   48 1
  40   19   20 ar
  41   19   32 1
  42   21   22 2
  43   21   49 1
  44   22   23 1
  45   22   50 1
  46   23   24 2
  47   23   25 1
  48   25   26 1
  49   25   27 2
  50   25   28 2
  51   26   29 1
  52   26   30 1
  53   26   51 1
  54   29   30 1
  55   29   52 1
  56   29   53 1
  57   30   54 1
  58   30   55 1
  59   32   33 1
  60   33   56 1
  61   33   57 1
  62   33   58 1

#	End of record

