#	Name: ASD03330432
#	Creating user name:	WinNT
#	Creation time:	15. 06. 2019 20:37

#	Modifying user name:	WinNT
#	Modification time:	15. 06. 2019 20:37

#	Program:	/corina/corina34_cracker 3.40 0067  02.08.2006

@<TRIPOS>MOLECULE
ASD03330432
  56   60    0    0    0
SMALL
NO_CHARGES


@<TRIPOS>ATOM
   1 C1             0.1075     1.8342     0.0687 C.3     
   2 N2            -0.0226     0.3727     0.1507 N.3     
   3 C3             0.3333    -0.2668    -1.1290 C.3     
   4 C4             1.6638     0.2859    -1.5707 C.2     
   5 N5             2.2243     1.4153    -1.0481 N.pl3   
   6 C6             1.5903     2.2215    -0.0013 C.3     
   7 C7             2.5194    -0.1884    -2.5094 C.2     
   8 N8             3.5860     0.6433    -2.5513 N.2     
   9 C9             3.4144     1.6079    -1.6748 C.2     
  10 C10            4.3581     2.7164    -1.4147 C.ar    
  11 C11            2.3231    -1.3927    -3.3354 C.2     
  12 O12            1.3782    -2.1285    -3.1230 O.2     
  13 C13            3.0874    -2.9424    -5.0692 C.3     
  14 N14            3.1906    -1.6790    -4.3263 N.am    
  15 C15           -1.3758    -0.0125     0.5732 C.3     
  16 C16            4.6067     3.1324    -0.1061 C.ar    
  17 C17            5.4880     4.1663     0.1308 C.ar    
  18 C18            6.1270     4.7929    -0.9266 C.ar    
  19 C19            5.8857     4.3867    -2.2273 C.ar    
  20 C20            5.0089     3.3478    -2.4778 C.ar    
  21 F21            4.7734     2.9515    -3.7477 F       
  22 Cl22           7.2348     6.0935    -0.6187 Cl      
  23 C23            4.4414    -3.6584    -5.0133 C.3     
  24 C24            5.5351    -2.7145    -5.5020 C.3     
  25 C25            5.6023    -1.4648    -4.6306 C.3     
  26 C26            4.2566    -0.7330    -4.6839 C.3     
  27 C27            6.8973    -3.4371    -5.4919 C.3     
  28 C28            6.9907    -3.9482    -6.9477 C.3     
  29 N29            6.1452    -3.0432    -7.7360 N.am    
  30 C30            5.3099    -2.3435    -6.9463 C.2     
  31 O31            4.4960    -1.5343    -7.3383 O.2     
  32 H32           -0.4035     2.1939    -0.8243 H       
  33 H33           -0.3442     2.2881     0.9508 H       
  34 H34            0.4092    -1.3457    -0.9933 H       
  35 H35           -0.4262    -0.0414    -1.8775 H       
  36 H36            1.6829     3.2798    -0.2454 H       
  37 H37            2.0685     2.0213     0.9575 H       
  38 H38            2.3221    -3.5719    -4.6152 H       
  39 H39            2.8257    -2.7359    -6.1070 H       
  40 H40           -2.1069     0.4222    -0.1084 H       
  41 H41           -1.4658    -1.0987     0.5579 H       
  42 H42           -1.5588     0.3531     1.5836 H       
  43 H43            4.1095     2.6456     0.7199 H       
  44 H44            5.6803     4.4886     1.1435 H       
  45 H45            6.3862     4.8795    -3.0477 H       
  46 H46            4.6520    -3.9580    -3.9866 H       
  47 H47            4.4121    -4.5418    -5.6511 H       
  48 H48            5.8201    -1.7505    -3.6015 H       
  49 H49            6.3889    -0.8064    -4.9993 H       
  50 H50            4.0863    -0.3541    -5.6916 H       
  51 H51            4.2628     0.0955    -3.9756 H       
  52 H52            7.7066    -2.7415    -5.2697 H       
  53 H53            6.8935    -4.2676    -4.7860 H       
  54 H54            8.0218    -3.9020    -7.2982 H       
  55 H55            6.6145    -4.9691    -7.0138 H       
  56 H56            6.1839    -2.9600    -8.7017 H       
@<TRIPOS>BOND
   1    1    2 1
   2    1    6 1
   3    1   32 1
   4    1   33 1
   5    2    3 1
   6    2   15 1
   7    3    4 1
   8    3   34 1
   9    3   35 1
  10    4    5 1
  11    4    7 2
  12    5    6 1
  13    5    9 1
  14    6   36 1
  15    6   37 1
  16    7    8 1
  17    7   11 1
  18    8    9 2
  19    9   10 1
  20   10   16 ar
  21   10   20 ar
  22   11   12 2
  23   11   14 am
  24   13   14 1
  25   13   23 1
  26   13   38 1
  27   13   39 1
  28   14   26 1
  29   15   40 1
  30   15   41 1
  31   15   42 1
  32   16   17 ar
  33   16   43 1
  34   17   18 ar
  35   17   44 1
  36   18   19 ar
  37   18   22 1
  38   19   20 ar
  39   19   45 1
  40   20   21 1
  41   23   24 1
  42   23   46 1
  43   23   47 1
  44   24   25 1
  45   24   27 1
  46   24   30 1
  47   25   26 1
  48   25   48 1
  49   25   49 1
  50   26   50 1
  51   26   51 1
  52   27   28 1
  53   27   52 1
  54   27   53 1
  55   28   29 1
  56   28   54 1
  57   28   55 1
  58   29   30 am
  59   29   56 1
  60   30   31 2

#	End of record

