#	Name: ASD02408002
#	Creating user name:	WinNT
#	Creation time:	15. 06. 2019 20:20

#	Modifying user name:	WinNT
#	Modification time:	15. 06. 2019 20:20

#	Program:	/corina/corina34_cracker 3.40 0067  02.08.2006

@<TRIPOS>MOLECULE
ASD02408002
  35   38    0    0    0
SMALL
NO_CHARGES


@<TRIPOS>ATOM
   1 N1            -0.0156     1.2968     0.0092 N.2     
   2 C2             0.0021    -0.0041     0.0020 C.2     
   3 N3             1.2922    -0.4491    -0.0127 N.pl3   
   4 C4             2.1066     0.6507    -0.0145 C.2     
   5 N5             3.4326     0.8296    -0.0266 N.2     
   6 C6             3.9555     2.0355    -0.0255 C.2     
   7 N7             3.1805     3.1567    -0.0121 N.am    
   8 C8             1.8330     3.0548     0.0010 C.2     
   9 C9             1.2570     1.7628    -0.0005 C.2     
  10 O10            1.1312     4.0517     0.0139 O.2     
  11 O11           -0.0933    -6.0351    -0.8559 O.3     
  12 P12            0.5228    -5.9254    -2.3538 P.3     
  13 O13            1.4434    -4.5785    -2.3890 O.3     
  14 C14            0.9511    -3.4468    -1.6652 C.3     
  15 C15            0.7692    -3.9184    -0.1969 C.3     
  16 C16           -0.4345    -4.8366    -0.1185 C.3     
  17 O17            0.6843    -2.6923     0.5247 O.3     
  18 C18            1.9687    -2.3133    -1.4823 C.3     
  19 C19            1.7260    -1.8484    -0.0243 C.3     
  20 O20            1.4275    -7.2185    -2.6724 O.3     
  21 O21            3.3020    -2.8026    -1.6399 O.3     
  22 O22           -0.5717    -5.8159    -3.3440 O.2     
  23 N23            5.3212     2.1696    -0.0378 N.pl3   
  24 H24           -0.8730    -0.6369     0.0070 H       
  25 H25            3.5983     4.0321    -0.0117 H       
  26 H26            0.0129    -3.0869    -2.0875 H       
  27 H27            1.6603    -4.4568     0.1257 H       
  28 H28           -1.3011    -4.3546    -0.5710 H       
  29 H29           -0.6459    -5.0861     0.9212 H       
  30 H30            1.7705    -1.5019    -2.1826 H       
  31 H31            2.6403    -1.9609     0.5582 H       
  32 H32            0.9463    -8.0560    -2.6274 H       
  33 H33            3.9845    -2.1258    -1.5340 H       
  34 H34            5.8859     1.3810    -0.0471 H       
  35 H35            5.7218     3.0530    -0.0371 H       
@<TRIPOS>BOND
   1    1    2 2
   2    1    9 1
   3    2    3 1
   4    2   24 1
   5    3    4 1
   6    3   19 1
   7    4    5 1
   8    4    9 2
   9    5    6 2
  10    6    7 1
  11    6   23 1
  12    7    8 am
  13    7   25 1
  14    8    9 1
  15    8   10 2
  16   11   12 1
  17   11   16 1
  18   12   13 1
  19   12   20 1
  20   12   22 2
  21   13   14 1
  22   14   15 1
  23   14   18 1
  24   14   26 1
  25   15   16 1
  26   15   17 1
  27   15   27 1
  28   16   28 1
  29   16   29 1
  30   17   19 1
  31   18   19 1
  32   18   21 1
  33   18   30 1
  34   19   31 1
  35   20   32 1
  36   21   33 1
  37   23   34 1
  38   23   35 1

#	End of record

