#	Name: ASD03730820
#	Creating user name:	WinNT
#	Creation time:	15. 06. 2019 20:44

#	Modifying user name:	WinNT
#	Modification time:	15. 06. 2019 20:44

#	Program:	/corina/corina34_cracker 3.40 0067  02.08.2006

@<TRIPOS>MOLECULE
ASD03730820
  67   72    0    0    0
SMALL
NO_CHARGES


@<TRIPOS>ATOM
   1 O1            -0.6998     2.5580     2.3899 O.3     
   2 C2            -1.0258     1.1580     2.3029 C.3     
   3 C3            -0.3258     0.7311     1.0056 C.3     
   4 C4             0.7741     1.7484     0.8562 C.ar    
   5 C5             0.4675     2.7933     1.7268 C.ar    
   6 C6             1.3302     3.8784     1.8084 C.ar    
   7 C7             2.4809     3.9211     1.0208 C.ar    
   8 C8             2.7674     2.8683     0.1469 C.ar    
   9 C9             1.9095     1.7902     0.0736 C.ar    
  10 N10           -0.3713    -1.3630     0.0906 N.am    
  11 C11            0.2052    -0.6709     1.0932 C.2     
  12 C12           -1.2641     0.7286    -0.1644 C.ar    
  13 C13           -2.0532     1.6911    -0.7537 C.ar    
  14 C14           -2.8308     1.3724    -1.8527 C.ar    
  15 C15           -2.8136     0.0852    -2.3583 C.ar    
  16 C16           -2.0245    -0.8823    -1.7720 C.ar    
  17 C17           -1.2386    -0.5705    -0.6653 C.ar    
  18 O18            0.9976    -1.0969     1.9068 O.2     
  19 C19           -0.1174    -2.7810    -0.1760 C.3     
  20 C20           -1.1187    -3.6341     0.6053 C.3     
  21 C21           -0.8535    -5.1150     0.3268 C.3     
  22 C22           -1.8549    -5.9681     1.1081 C.3     
  23 C23           -1.5897    -7.4490     0.8297 C.3     
  24 N24            3.3261     4.9903     1.1030 N.2     
  25 C25            4.5949     4.8039     1.3811 C.2     
  26 C26            5.0814     3.4561     1.7464 C.ar    
  27 C27            6.2543     2.9561     1.1777 C.ar    
  28 C28            6.7029     1.6982     1.5232 C.ar    
  29 C29            5.9928     0.9322     2.4308 C.ar    
  30 C30            4.8295     1.4217     2.9981 C.ar    
  31 C31            4.3730     2.6802     2.6657 C.ar    
  32 C32            5.5382     5.9415     1.3293 C.ar    
  33 C33            5.1279     7.1692     0.8063 C.ar    
  34 C34            6.0127     8.2265     0.7614 C.ar    
  35 C35            7.3045     8.0722     1.2327 C.ar    
  36 C36            7.7176     6.8581     1.7523 C.ar    
  37 C37            6.8411     5.7943     1.8085 C.ar    
  38 H38           -0.6232     0.6133     3.1569 H       
  39 H39           -2.1038     1.0159     2.2255 H       
  40 H40            1.1094     4.6920     2.4835 H       
  41 H41            3.6550     2.8988    -0.4677 H       
  42 H42            2.1279     0.9747    -0.6000 H       
  43 H43           -2.0653     2.6957    -0.3574 H       
  44 H44           -3.4502     2.1270    -2.3145 H       
  45 H45           -3.4211    -0.1636    -3.2160 H       
  46 H46           -2.0163    -1.8854    -2.1723 H       
  47 H47           -0.2285    -2.9757    -1.2427 H       
  48 H48            0.8961    -3.0335     0.1358 H       
  49 H49           -1.0076    -3.4393     1.6719 H       
  50 H50           -2.1322    -3.3816     0.2935 H       
  51 H51           -0.9647    -5.3097    -0.7398 H       
  52 H52            0.1599    -5.3675     0.6386 H       
  53 H53           -1.7437    -5.7733     2.1748 H       
  54 H54           -2.8684    -5.7156     0.7964 H       
  55 H55           -1.7009    -7.6437    -0.2370 H       
  56 H56           -0.5762    -7.7015     1.1414 H       
  57 H57           -2.3031    -8.0567     1.3863 H       
  58 H58            6.8091     3.5527     0.4687 H       
  59 H59            7.6101     1.3102     1.0840 H       
  60 H60            6.3480    -0.0523     2.6973 H       
  61 H61            4.2799     0.8185     3.7055 H       
  62 H62            3.4673     3.0629     3.1126 H       
  63 H63            4.1202     7.2907     0.4375 H       
  64 H64            5.6967     9.1768     0.3570 H       
  65 H65            7.9935     8.9030     1.1946 H       
  66 H66            8.7273     6.7442     2.1182 H       
  67 H67            7.1635     4.8485     2.2184 H       
@<TRIPOS>BOND
   1    1    2 1
   2    1    5 1
   3    2    3 1
   4    2   38 1
   5    2   39 1
   6    3    4 1
   7    3   11 1
   8    3   12 1
   9    4    5 ar
  10    4    9 ar
  11    5    6 ar
  12    6    7 ar
  13    6   40 1
  14    7    8 ar
  15    7   24 1
  16    8    9 ar
  17    8   41 1
  18    9   42 1
  19   10   11 am
  20   10   17 1
  21   10   19 1
  22   11   18 2
  23   12   13 ar
  24   12   17 ar
  25   13   14 ar
  26   13   43 1
  27   14   15 ar
  28   14   44 1
  29   15   16 ar
  30   15   45 1
  31   16   17 ar
  32   16   46 1
  33   19   20 1
  34   19   47 1
  35   19   48 1
  36   20   21 1
  37   20   49 1
  38   20   50 1
  39   21   22 1
  40   21   51 1
  41   21   52 1
  42   22   23 1
  43   22   53 1
  44   22   54 1
  45   23   55 1
  46   23   56 1
  47   23   57 1
  48   24   25 2
  49   25   26 1
  50   25   32 1
  51   26   27 ar
  52   26   31 ar
  53   27   28 ar
  54   27   58 1
  55   28   29 ar
  56   28   59 1
  57   29   30 ar
  58   29   60 1
  59   30   31 ar
  60   30   61 1
  61   31   62 1
  62   32   33 ar
  63   32   37 ar
  64   33   34 ar
  65   33   63 1
  66   34   35 ar
  67   34   64 1
  68   35   36 ar
  69   35   65 1
  70   36   37 ar
  71   36   66 1
  72   37   67 1

#	End of record

