#	Name: ASD03090307
#	Creating user name:	WinNT
#	Creation time:	15. 06. 2019 20:28

#	Modifying user name:	WinNT
#	Modification time:	15. 06. 2019 20:28

#	Program:	/corina/corina34_cracker 3.40 0067  02.08.2006

@<TRIPOS>MOLECULE
ASD03090307
  52   55    0    0    0
SMALL
NO_CHARGES


@<TRIPOS>ATOM
   1 C1             0.2534     1.4015     1.4628 C.ar    
   2 C2             1.4048     2.1186     1.1659 C.ar    
   3 C3             2.5785     1.4498     0.8618 C.ar    
   4 C4             2.5999     0.0554     0.8554 C.ar    
   5 C5             1.4385    -0.6568     1.1554 C.ar    
   6 C6             0.2735     0.0194     1.4567 C.ar    
   7 C7             3.8504    -0.6663     0.5310 C.2     
   8 N8             5.6922    -3.4796    -0.4939 N.pl3   
   9 C9             4.7883    -4.4818    -0.8561 C.ar    
  10 C10            5.0952    -5.8154    -0.6160 C.ar    
  11 C11            4.2014    -6.8060    -0.9743 C.ar    
  12 C12            3.0006    -6.4737    -1.5718 C.ar    
  13 C13            2.6882    -5.1429    -1.8137 C.ar    
  14 C14            3.5796    -4.1458    -1.4512 C.ar    
  15 N15            3.9413    -1.9192     0.1322 N.2     
  16 C16            5.2218    -2.2358    -0.0679 C.2     
  17 N17            5.9685    -1.1895     0.2000 N.2     
  18 N18            5.1006    -0.1551     0.5857 N.pl3   
  19 C19            5.4763     1.2052     0.9789 C.3     
  20 C20            5.5542     2.0788    -0.2466 C.2     
  21 N21            5.8853     3.3798    -0.1268 N.am    
  22 O22            1.5068    -4.8179    -2.4015 O.3     
  23 O23            5.3191     1.6112    -1.3406 O.2     
  24 C24            5.9610     4.2291    -1.3181 C.3     
  25 O25            1.3796     3.4774     1.1732 O.3     
  26 C26            0.1350     4.1015     1.4950 C.3     
  27 C27            5.7556     5.7332    -1.1276 C.3     
  28 C28            7.1512     5.1839    -1.4305 C.3     
  29 C29            0.6342    -5.8964    -2.7440 C.3     
  30 F30            0.2957    -6.6076    -1.5877 F       
  31 F31           -0.5270    -5.3871    -3.3349 F       
  32 F32            1.2797    -6.7505    -3.6446 F       
  33 H33           -0.6597     1.9254     1.7037 H       
  34 H34            3.4745     2.0063     0.6300 H       
  35 H35            1.4507    -1.7367     1.1512 H       
  36 H36           -0.6249    -0.5331     1.6891 H       
  37 H37            6.6464    -3.6480    -0.5383 H       
  38 H38            6.0332    -6.0778    -0.1495 H       
  39 H39            4.4417    -7.8422    -0.7873 H       
  40 H40            2.3042    -7.2504    -1.8513 H       
  41 H41            3.3383    -3.1100    -1.6387 H       
  42 H42            4.7283     1.6053     1.6633 H       
  43 H43            6.4475     1.1853     1.4733 H       
  44 H44            6.0733     3.7538     0.7482 H       
  45 H45            5.5851     3.7824    -2.2386 H       
  46 H46           -0.1762     3.7974     2.4944 H       
  47 H47            0.2533     5.1846     1.4652 H       
  48 H48           -0.6213     3.7984     0.7710 H       
  49 H49            5.2450     6.2762    -1.9229 H       
  50 H50            5.5642     6.0909    -0.1159 H       
  51 H51            7.8778     5.1803    -0.6180 H       
  52 H52            7.5586     5.3655    -2.4250 H       
@<TRIPOS>BOND
   1    1    2 ar
   2    1    6 ar
   3    1   33 1
   4    2    3 ar
   5    2   25 1
   6    3    4 ar
   7    3   34 1
   8    4    5 ar
   9    4    7 1
  10    5    6 ar
  11    5   35 1
  12    6   36 1
  13    7   15 2
  14    7   18 1
  15    8    9 1
  16    8   16 1
  17    8   37 1
  18    9   10 ar
  19    9   14 ar
  20   10   11 ar
  21   10   38 1
  22   11   12 ar
  23   11   39 1
  24   12   13 ar
  25   12   40 1
  26   13   14 ar
  27   13   22 1
  28   14   41 1
  29   15   16 1
  30   16   17 2
  31   17   18 1
  32   18   19 1
  33   19   20 1
  34   19   42 1
  35   19   43 1
  36   20   21 am
  37   20   23 2
  38   21   24 1
  39   21   44 1
  40   22   29 1
  41   24   27 1
  42   24   28 1
  43   24   45 1
  44   25   26 1
  45   26   46 1
  46   26   47 1
  47   26   48 1
  48   27   28 1
  49   27   49 1
  50   27   50 1
  51   28   51 1
  52   28   52 1
  53   29   30 1
  54   29   31 1
  55   29   32 1

#	End of record

