#	Name: ASD01913145
#	Creating user name:	WinNT
#	Creation time:	15. 06. 2019 20:01

#	Modifying user name:	WinNT
#	Modification time:	15. 06. 2019 20:01

#	Program:	/corina/corina34_cracker 3.40 0067  02.08.2006

@<TRIPOS>MOLECULE
ASD01913145
  52   54    0    0    0
SMALL
NO_CHARGES


@<TRIPOS>ATOM
   1 C1             0.0287     1.1111     0.4954 C.ar    
   2 C2             0.0052    -0.2728     0.5338 C.ar    
   3 C3            -1.2019    -0.9445     0.5157 C.ar    
   4 C4            -2.3906    -0.2319     0.4591 C.ar    
   5 C5            -2.3656     1.1544     0.4208 C.ar    
   6 C6            -1.1573     1.8237     0.4443 C.ar    
   7 O7            -3.5791    -0.8917     0.4408 O.3     
   8 C8            -4.7632    -0.0939     0.3820 C.3     
   9 C9            -5.9921    -1.0052     0.3695 C.3     
  10 C10           -7.2408    -0.1638     0.3075 C.2     
  11 N11           -8.4516    -0.7554     0.2866 N.am    
  12 C12           -9.6828     0.0469     0.2262 C.3     
  13 C13          -10.5528    -0.4820    -0.9190 C.3     
  14 N14          -10.7602    -1.9259    -0.7455 N.3     
  15 C15           -9.4904    -2.6601    -0.8254 C.3     
  16 C16           -8.5766    -2.2205     0.3174 C.3     
  17 O17           -7.1562     1.0456     0.2763 O.2     
  18 C18          -11.6773    -2.4132    -1.6726 C.ar    
  19 C19          -11.2658    -3.2911    -2.6654 C.ar    
  20 C20          -12.1773    -3.7733    -3.5842 C.ar    
  21 C21          -13.5054    -3.3859    -3.5234 C.ar    
  22 C22          -13.9323    -2.5143    -2.5437 C.ar    
  23 C23          -13.0237    -2.0234    -1.6043 C.ar    
  24 C24          -13.4736    -1.0918    -0.5541 C.2     
  25 F25            1.2098     1.7667     0.5136 F       
  26 N26          -13.2730    -1.3761     0.6926 N.2     
  27 O27          -12.5440    -2.5376     1.0454 O.3     
  28 C28          -15.3791    -2.0970    -2.4835 C.3     
  29 F29          -16.0651    -2.6334    -3.5785 F       
  30 F30          -15.9517    -2.5693    -1.2976 F       
  31 F31          -15.4637    -0.7010    -2.5185 F       
  32 H32            0.9309    -0.8273     0.5775 H       
  33 H33           -1.2199    -2.0239     0.5452 H       
  34 H34           -3.2904     1.7104     0.3763 H       
  35 H35           -1.1375     2.9031     0.4148 H       
  36 H36           -4.8045     0.5598     1.2532 H       
  37 H37           -4.7495     0.5102    -0.5252 H       
  38 H38           -5.9508    -1.6589    -0.5018 H       
  39 H39           -6.0057    -1.6093     1.2767 H       
  40 H40          -10.2241    -0.0415     1.1682 H       
  41 H41           -9.4307     1.0913     0.0422 H       
  42 H42          -11.5163     0.0276    -0.9092 H       
  43 H43          -10.0533    -0.2981    -1.8702 H       
  44 H44           -9.6833    -3.7300    -0.7477 H       
  45 H45           -9.0056    -2.4458    -1.7779 H       
  46 H46           -7.5938    -2.6761     0.1964 H       
  47 H47           -9.0096    -2.5251     1.2703 H       
  48 H48          -10.2315    -3.5974    -2.7198 H       
  49 H49          -11.8523    -4.4564    -4.3550 H       
  50 H50          -14.2102    -3.7680    -4.2469 H       
  51 H51          -13.9705    -0.1719    -0.8250 H       
  52 H52          -12.5110    -2.7074     1.9969 H       
@<TRIPOS>BOND
   1    1    2 ar
   2    1   25 1
   3    1    6 ar
   4    2    3 ar
   5    2   32 1
   6    3    4 ar
   7    3   33 1
   8    4    5 ar
   9    4    7 1
  10    5    6 ar
  11    5   34 1
  12    6   35 1
  13    7    8 1
  14    8    9 1
  15    8   36 1
  16    8   37 1
  17    9   10 1
  18    9   38 1
  19    9   39 1
  20   10   11 am
  21   10   17 2
  22   11   12 1
  23   11   16 1
  24   12   13 1
  25   12   40 1
  26   12   41 1
  27   13   14 1
  28   13   42 1
  29   13   43 1
  30   14   15 1
  31   14   18 1
  32   15   16 1
  33   15   44 1
  34   15   45 1
  35   16   46 1
  36   16   47 1
  37   18   19 ar
  38   18   23 ar
  39   19   20 ar
  40   19   48 1
  41   20   21 ar
  42   20   49 1
  43   21   22 ar
  44   21   50 1
  45   22   23 ar
  46   22   28 1
  47   23   24 1
  48   24   26 2
  49   24   51 1
  50   26   27 1
  51   27   52 1
  52   28   29 1
  53   28   30 1
  54   28   31 1

#	End of record

