#	Name: ASD00844867
#	Creating user name:	WinNT
#	Creation time:	15. 06. 2019 18:51

#	Modifying user name:	WinNT
#	Modification time:	15. 06. 2019 18:51

#	Program:	/corina/corina34_cracker 3.40 0067  02.08.2006

@<TRIPOS>MOLECULE
ASD00844867
  82   87    0    0    0
SMALL
NO_CHARGES


@<TRIPOS>ATOM
   1 F1             5.7057    -2.1832    -1.9783 F       
   2 C2             0.7571     1.2681    -0.4621 C.ar    
   3 C3             1.0001    -0.0752    -0.7083 C.ar    
   4 C4             0.8699    -1.0007     0.3172 C.ar    
   5 C5             0.4990    -0.5826     1.5803 C.ar    
   6 C6             0.2569     0.7571     1.8231 C.ar    
   7 C7             0.3863     1.6813     0.8032 C.ar    
   8 C8             1.1326    -2.4609     0.0530 C.3     
   9 C9             0.7976    -3.2893     1.2748 C.2     
  10 C10            0.3262    -2.9389    -1.1561 C.3     
  11 C11           -1.1343    -2.6397    -0.9359 C.2     
  12 N12           -2.0515    -3.0676    -1.8259 N.am    
  13 O13           -1.4844    -2.0139     0.0423 O.2     
  14 C14           -3.4668    -2.6903    -1.6919 C.3     
  15 C15           -3.9480    -2.1221    -3.0312 C.3     
  16 N16           -3.6611    -3.0875    -4.1006 N.3     
  17 C17           -2.2159    -3.3073    -4.2464 C.3     
  18 C18           -1.6627    -3.9191    -2.9603 C.3     
  19 C19           -4.2592    -2.6583    -5.3718 C.3     
  20 C20           -3.8368    -3.6195    -6.4864 C.3     
  21 C21           -4.5114    -3.2029    -7.7954 C.3     
  22 N22           -5.9699    -3.2315    -7.6265 N.3     
  23 C23           -6.4036    -2.2817    -6.5940 C.3     
  24 C24           -5.7854    -2.6707    -5.2491 C.3     
  25 H25           -6.4388    -3.0530    -8.5019 H       
  26 O26           -0.2906    -3.3883     1.8012 O.2     
  27 N27            1.9311    -3.8947     1.6666 N.am    
  28 C28            2.6095    -2.7027    -0.1627 C.ar    
  29 C29            3.0140    -3.5724     0.8450 C.ar    
  30 C30            3.5030    -2.2388    -1.1028 C.ar    
  31 C31            4.8279    -2.6363    -1.0567 C.ar    
  32 C32            5.2526    -3.5102    -0.0507 C.ar    
  33 C33            4.3427    -3.9765     0.8978 C.ar    
  34 C34            1.7064    -6.5393     2.3949 C.ar    
  35 C35            2.7457    -7.3374     1.9547 C.ar    
  36 C36            0.4117    -7.0236     2.3867 C.ar    
  37 C37            0.1562    -8.3060     1.9384 C.ar    
  38 C38            1.1955    -9.1040     1.4978 C.ar    
  39 C39            2.4902    -8.6197     1.5060 C.ar    
  40 H40            0.9959   -10.1060     1.1476 H       
  41 H41            3.7572    -6.9591     1.9611 H       
  42 O42            1.3645    -0.4841    -1.9520 O.3     
  43 C43            1.3985     0.5102    -2.9779 C.3     
  44 C44            1.9108    -0.1148    -4.2771 C.3     
  45 F45            3.1617    -0.6994    -4.0518 F       
  46 F46            1.0100    -1.0934    -4.7107 F       
  47 S47            2.0329    -4.9072     2.9731 S.o2    
  48 O48            3.3921    -4.8926     3.3872 O.2     
  49 O49            0.9549    -4.5628     3.8326 O.2     
  50 C50            6.6215    -3.9269     0.0049 C.1     
  51 N51            7.7074    -4.2574     0.0489 N.1     
  52 H52            0.8621     1.9910    -1.2575 H       
  53 H53            0.3976    -1.3026     2.3789 H       
  54 H54           -0.0337     1.0820     2.8113 H       
  55 H55            0.1967     2.7270     0.9953 H       
  56 H56            0.6721    -2.4217    -2.0510 H       
  57 H57            0.4620    -4.0131    -1.2819 H       
  58 H58           -4.0572    -3.5695    -1.4338 H       
  59 H59           -3.5721    -1.9339    -0.9142 H       
  60 H60           -5.0216    -1.9398    -2.9843 H       
  61 H61           -3.4284    -1.1863    -3.2370 H       
  62 H62           -2.0334    -3.9845    -5.0808 H       
  63 H63           -1.7205    -2.3550    -4.4353 H       
  64 H64           -0.5760    -3.9777    -3.0207 H       
  65 H65           -2.0788    -4.9169    -2.8210 H       
  66 H66           -3.9203    -1.6506    -5.6119 H       
  67 H67           -2.7541    -3.5831    -6.6073 H       
  68 H68           -4.1407    -4.6336    -6.2270 H       
  69 H69           -4.1963    -2.1939    -8.0613 H       
  70 H70           -4.2239    -3.8938    -8.5879 H       
  71 H71           -6.0796    -1.2770    -6.8655 H       
  72 H72           -7.4904    -2.3035    -6.5140 H       
  73 H73           -6.1200    -3.6700    -4.9703 H       
  74 H74           -6.0950    -1.9566    -4.4861 H       
  75 H75            3.1691    -1.5641    -1.8773 H       
  76 H76            4.6711    -4.6513     1.6745 H       
  77 H77           -0.4003    -6.4001     2.7309 H       
  78 H78           -0.8552    -8.6846     1.9326 H       
  79 H79            3.3022    -9.2433     1.1622 H       
  80 H80            0.3945     0.9042    -3.1354 H       
  81 H81            2.0635     1.3198    -2.6772 H       
  82 H82            2.0030     0.6579    -5.0403 H       
@<TRIPOS>BOND
   1    1   31 1
   2    2    3 ar
   3    2    7 ar
   4    2   52 1
   5    3    4 ar
   6    3   42 1
   7    4    5 ar
   8    4    8 1
   9    5    6 ar
  10    5   53 1
  11    6    7 ar
  12    6   54 1
  13    7   55 1
  14    8    9 1
  15    8   10 1
  16    8   28 1
  17    9   26 2
  18    9   27 am
  19   10   11 1
  20   10   56 1
  21   10   57 1
  22   11   12 am
  23   11   13 2
  24   12   14 1
  25   12   18 1
  26   14   15 1
  27   14   58 1
  28   14   59 1
  29   15   16 1
  30   15   60 1
  31   15   61 1
  32   16   17 1
  33   16   19 1
  34   17   18 1
  35   17   62 1
  36   17   63 1
  37   18   64 1
  38   18   65 1
  39   19   20 1
  40   19   24 1
  41   19   66 1
  42   20   21 1
  43   20   67 1
  44   20   68 1
  45   21   22 1
  46   21   69 1
  47   21   70 1
  48   22   23 1
  49   22   25 1
  50   23   24 1
  51   23   71 1
  52   23   72 1
  53   24   73 1
  54   24   74 1
  55   27   47 am
  56   27   29 1
  57   28   29 ar
  58   28   30 ar
  59   29   33 ar
  60   30   31 ar
  61   30   75 1
  62   31   32 ar
  63   32   33 ar
  64   32   50 1
  65   33   76 1
  66   34   35 ar
  67   34   36 ar
  68   34   47 1
  69   35   41 1
  70   35   39 ar
  71   36   37 ar
  72   36   77 1
  73   37   38 ar
  74   37   78 1
  75   38   39 ar
  76   38   40 1
  77   39   79 1
  78   42   43 1
  79   43   44 1
  80   43   80 1
  81   43   81 1
  82   44   45 1
  83   44   46 1
  84   44   82 1
  85   47   48 2
  86   47   49 2
  87   50   51 3

#	End of record

