#	Name: ASD08150066
#	Creating user name:	WinNT
#	Creation time:	15. 06. 2019 21:15

#	Modifying user name:	WinNT
#	Modification time:	15. 06. 2019 21:15

#	Program:	/corina/corina34_cracker 3.40 0067  02.08.2006

@<TRIPOS>MOLECULE
ASD08150066
  47   48    0    0    0
SMALL
NO_CHARGES


@<TRIPOS>ATOM
   1 C1             0.0994     1.2716    -0.3474 C.2     
   2 N2            -0.0376    -0.0501    -0.1222 N.am    
   3 O3             1.1866     1.7284    -0.6405 O.2     
   4 O4            -0.9694     2.0849    -0.2532 O.3     
   5 C5             1.1241    -0.9360    -0.2307 C.3     
   6 C6             1.3311    -1.3186    -1.6735 C.ar    
   7 C7             2.0422    -0.4823    -2.5141 C.ar    
   8 C8             2.2333    -0.8307    -3.8372 C.ar    
   9 C9             1.7110    -2.0210    -4.3222 C.ar    
  10 C10            0.9979    -2.8584    -3.4767 C.ar    
  11 C11            0.8144    -2.5081    -2.1531 C.ar    
  12 O12            1.8973    -2.3658    -5.6235 O.3     
  13 C13            1.3314    -3.6055    -6.0535 C.3     
  14 C14           -1.2459    -1.3468     1.5631 C.3     
  15 C15           -1.3484    -0.6009     0.2312 C.3     
  16 C16           -1.8062    -1.5690    -0.8616 C.3     
  17 O17           -0.9026    -0.4253     2.5999 O.3     
  18 C18           -0.7478     3.4969    -0.5090 C.3     
  19 C19           -2.0474     4.2447    -0.3583 C.ar    
  20 C20           -2.4090     4.7613     0.8719 C.ar    
  21 C21           -3.6012     5.4472     1.0101 C.ar    
  22 C22           -4.4316     5.6170    -0.0819 C.ar    
  23 C23           -4.0696     5.1012    -1.3123 C.ar    
  24 C24           -2.8754     4.4190    -1.4515 C.ar    
  25 H25            2.0102    -0.4201     0.1391 H       
  26 H26            0.9527    -1.8343     0.3624 H       
  27 H27            2.4483     0.4444    -2.1362 H       
  28 H28            2.7885    -0.1770    -4.4935 H       
  29 H29            0.5903    -3.7855    -3.8519 H       
  30 H30            0.2634    -3.1619    -1.4933 H       
  31 H31            0.2514    -3.5816    -5.9085 H       
  32 H32            1.5530    -3.7591    -7.1096 H       
  33 H33            1.7583    -4.4214    -5.4703 H       
  34 H34           -2.2041    -1.8125     1.7934 H       
  35 H35           -0.4765    -2.1155     1.4908 H       
  36 H36           -2.0704     0.2104     0.3237 H       
  37 H37           -1.1731    -2.4562    -0.8495 H       
  38 H38           -2.8412    -1.8586    -0.6801 H       
  39 H39           -1.7304    -1.0818    -1.8337 H       
  40 H40           -0.8204    -0.8299     3.4744 H       
  41 H41           -0.0203     3.8855     0.2036 H       
  42 H42           -0.3689     3.6275    -1.5227 H       
  43 H43           -1.7603     4.6287     1.7250 H       
  44 H44           -3.8840     5.8502     1.9714 H       
  45 H45           -5.3634     6.1522     0.0262 H       
  46 H46           -4.7185     5.2335    -2.1654 H       
  47 H47           -2.5908     4.0193    -2.4136 H       
@<TRIPOS>BOND
   1    1    2 am
   2    1    3 2
   3    1    4 1
   4    2    5 1
   5    2   15 1
   6    4   18 1
   7    5    6 1
   8    5   25 1
   9    5   26 1
  10    6    7 ar
  11    6   11 ar
  12    7    8 ar
  13    7   27 1
  14    8    9 ar
  15    8   28 1
  16    9   10 ar
  17    9   12 1
  18   10   11 ar
  19   10   29 1
  20   11   30 1
  21   12   13 1
  22   13   31 1
  23   13   32 1
  24   13   33 1
  25   14   15 1
  26   14   17 1
  27   14   34 1
  28   14   35 1
  29   15   16 1
  30   15   36 1
  31   16   37 1
  32   16   38 1
  33   16   39 1
  34   17   40 1
  35   18   19 1
  36   18   41 1
  37   18   42 1
  38   19   20 ar
  39   19   24 ar
  40   20   21 ar
  41   20   43 1
  42   21   22 ar
  43   21   44 1
  44   22   23 ar
  45   22   45 1
  46   23   24 ar
  47   23   46 1
  48   24   47 1

#	End of record

