#	Name: ASD01230653
#	Creating user name:	WinNT
#	Creation time:	15. 06. 2019 19:14

#	Modifying user name:	WinNT
#	Modification time:	15. 06. 2019 19:14

#	Program:	/corina/corina34_cracker 3.40 0067  02.08.2006

@<TRIPOS>MOLECULE
ASD01230653
  41   43    0    0    0
SMALL
NO_CHARGES


@<TRIPOS>ATOM
   1 S1            -0.0203     1.6432     0.0111 S.o2    
   2 N2             0.0021    -0.0041     0.0020 N.am    
   3 C3             1.0582    -0.7115     0.0766 C.2     
   4 N4             2.3239    -0.2014     0.2156 N.pl3   
   5 C5             2.5547     1.1284     0.7685 C.3     
   6 C6             1.7187     2.1517    -0.0028 C.3     
   7 C7             0.9691    -2.2282     0.0263 C.3     
   8 C8             2.0432    -2.7791     0.9676 C.3     
   9 C9             3.4382    -2.3754     0.5096 C.3     
  10 C10            3.4443    -1.0396    -0.2239 C.3     
  11 C11           -0.4150    -2.6840     0.4924 C.3     
  12 O12           -1.4043    -2.2211    -0.4290 O.3     
  13 C13           -2.6970    -2.5426    -0.1594 C.ar    
  14 C14           -3.7089    -2.1257    -1.0120 C.ar    
  15 C15           -5.0221    -2.4537    -0.7357 C.ar    
  16 C16           -5.3283    -3.1969     0.3893 C.ar    
  17 C17           -4.3216    -3.6132     1.2408 C.ar    
  18 C18           -3.0062    -3.2930     0.9657 C.ar    
  19 C19           -6.7617    -3.5533     0.6882 C.3     
  20 F20           -7.0746    -4.7748     0.0822 F       
  21 F21           -6.9366    -3.6610     2.0721 F       
  22 F22           -7.6045    -2.5551     0.1879 F       
  23 O23           -0.6472     1.9881    -1.2166 O.2     
  24 O24           -0.6237     1.9749     1.2541 O.2     
  25 H25            2.2653     1.1405     1.8193 H       
  26 H26            3.6113     1.3809     0.6793 H       
  27 H27            2.0726     2.2083    -1.0322 H       
  28 H28            1.8152     3.1296     0.4690 H       
  29 H29            1.1525    -2.5769    -0.9900 H       
  30 H30            1.8709    -2.3915     1.9717 H       
  31 H31            1.9753    -3.8668     0.9892 H       
  32 H32            4.0887    -2.3026     1.3812 H       
  33 H33            3.8279    -3.1455    -0.1561 H       
  34 H34            3.3602    -1.2183    -1.2958 H       
  35 H35            4.3816    -0.5221    -0.0194 H       
  36 H36           -0.4426    -3.7727     0.5386 H       
  37 H37           -0.6189    -2.2732     1.4812 H       
  38 H38           -3.4703    -1.5448    -1.8906 H       
  39 H39           -5.8103    -2.1291    -1.3989 H       
  40 H40           -4.5634    -4.1930     2.1193 H       
  41 H41           -2.2198    -3.6226     1.6284 H       
@<TRIPOS>BOND
   1    1    2 am
   2    1    6 1
   3    1   23 2
   4    1   24 2
   5    2    3 2
   6    3    4 1
   7    3    7 1
   8    4    5 1
   9    4   10 1
  10    5    6 1
  11    5   25 1
  12    5   26 1
  13    6   27 1
  14    6   28 1
  15    7    8 1
  16    7   11 1
  17    7   29 1
  18    8    9 1
  19    8   30 1
  20    8   31 1
  21    9   10 1
  22    9   32 1
  23    9   33 1
  24   10   34 1
  25   10   35 1
  26   11   12 1
  27   11   36 1
  28   11   37 1
  29   12   13 1
  30   13   14 ar
  31   13   18 ar
  32   14   15 ar
  33   14   38 1
  34   15   16 ar
  35   15   39 1
  36   16   17 ar
  37   16   19 1
  38   17   18 ar
  39   17   40 1
  40   18   41 1
  41   19   20 1
  42   19   21 1
  43   19   22 1

#	End of record

