#	Name: ASD04882064
#	Creating user name:	WinNT
#	Creation time:	15. 06. 2019 20:54

#	Modifying user name:	WinNT
#	Modification time:	15. 06. 2019 20:54

#	Program:	/corina/corina34_cracker 3.40 0067  02.08.2006

@<TRIPOS>MOLECULE
ASD04882064
  85   89    0    0    0
SMALL
NO_CHARGES


@<TRIPOS>ATOM
   1 N1            -0.1415     1.5630    -0.0347 N.am    
   2 C2            -0.0801     0.1632    -0.0458 C.ar    
   3 C3            -1.2558    -0.5890     0.0257 C.ar    
   4 C4            -1.1964    -1.9779     0.0143 C.ar    
   5 C5             0.0205    -2.6175    -0.0674 C.ar    
   6 C6             1.2001    -1.8713    -0.1392 C.ar    
   7 C7             1.1428    -0.4748    -0.1332 C.ar    
   8 N8            -2.4884     0.0535     0.1089 N.3     
   9 C9            -2.6186     0.7805     1.3795 C.3     
  10 C10           -3.5925    -0.9007    -0.0642 C.3     
  11 C11           -4.9236    -0.1454    -0.0457 C.3     
  12 N12           -5.0538     0.5815     1.2248 N.3     
  13 C13           -3.9497     1.5357     1.3979 C.3     
  14 C14            0.8377     2.2758     0.5565 C.2     
  15 O15            1.7200     1.7054     1.1696 O.2     
  16 C16            0.8396     3.7455     0.4602 C.ar    
  17 C17            2.5036    -2.5567    -0.2263 C.2     
  18 N18            2.5575    -3.9034    -0.2367 N.am    
  19 O19            3.5294    -1.9067    -0.2887 O.2     
  20 C20           -6.2901     1.2260     1.3083 C.ar    
  21 C21           -7.1709     0.9118     2.3352 C.ar    
  22 C22           -8.3925     1.5514     2.4151 C.ar    
  23 C23           -8.7391     2.5032     1.4740 C.ar    
  24 C24           -7.8644     2.8185     0.4501 C.ar    
  25 C25           -6.6392     2.1870     0.3676 C.ar    
  26 C26            1.8576     4.4903     1.0746 C.ar    
  27 C27            1.8520     5.8714     0.9787 C.ar    
  28 C28            0.8429     6.5144     0.2776 C.ar    
  29 C29           -0.1679     5.7769    -0.3320 C.ar    
  30 C30           -0.1702     4.4040    -0.2489 C.ar    
  31 O31            0.8407     7.8685     0.1858 O.3     
  32 C32           -0.2274     8.4671    -0.5509 C.3     
  33 O33            2.8436     3.8595     1.7604 O.3     
  34 C34            3.8462     4.6828     2.3594 C.3     
  35 C35           -6.7944    -0.1262     3.3608 C.3     
  36 C36            3.8519    -4.5840    -0.3232 C.3     
  37 C37            3.6333    -6.0983    -0.3170 C.3     
  38 C38            4.9851    -6.8091    -0.4073 C.3     
  39 N39            4.7758    -8.2591    -0.4014 N.am    
  40 C40            4.5969    -9.0041    -1.5058 C.2     
  41 C41            4.7407    -9.0857     0.8108 C.3     
  42 C42            4.0775   -10.4142     0.3846 C.3     
  43 C43            4.4010   -10.4558    -1.1280 C.3     
  44 O44            4.5924    -8.5748    -2.6401 O.2     
  45 H45           -0.8867     2.0191    -0.4559 H       
  46 H46           -2.1066    -2.5566     0.0700 H       
  47 H47            0.0634    -3.6967    -0.0757 H       
  48 H48            2.0526     0.1045    -0.1889 H       
  49 H49           -2.5906     0.0726     2.2079 H       
  50 H50           -1.7968     1.4895     1.4786 H       
  51 H51           -3.4807    -1.4172    -1.0174 H       
  52 H52           -3.5756    -1.6276     0.7479 H       
  53 H53           -4.9516     0.5624    -0.8742 H       
  54 H54           -5.7454    -0.8545    -0.1449 H       
  55 H55           -4.0615     2.0523     2.3512 H       
  56 H56           -3.9666     2.2626     0.5859 H       
  57 H57            1.7393    -4.4219    -0.1869 H       
  58 H58           -9.0779     1.3076     3.2133 H       
  59 H59           -9.6952     3.0013     1.5383 H       
  60 H60           -8.1384     3.5621    -0.2836 H       
  61 H61           -5.9565     2.4339    -0.4320 H       
  62 H62            2.6336     6.4483     1.4505 H       
  63 H63           -0.9508     6.2843    -0.8762 H       
  64 H64           -0.9563     3.8353    -0.7232 H       
  65 H65           -0.2083     8.1040    -1.5785 H       
  66 H66           -1.1792     8.2033    -0.0900 H       
  67 H67           -0.1094     9.5507    -0.5463 H       
  68 H68            4.5720     4.0542     2.8753 H       
  69 H69            4.3514     5.2612     1.5858 H       
  70 H70            3.3801     5.3611     3.0741 H       
  71 H71           -6.2819     0.3552     4.1937 H       
  72 H72           -7.6950    -0.6203     3.7252 H       
  73 H73           -6.1340    -0.8641     2.9054 H       
  74 H74            4.3544    -4.2932    -1.2457 H       
  75 H75            4.4683    -4.3024     0.5306 H       
  76 H76            3.1308    -6.3891     0.6055 H       
  77 H77            3.0169    -6.3799    -1.1708 H       
  78 H78            5.4876    -6.5183    -1.3298 H       
  79 H79            5.6015    -6.5275     0.4465 H       
  80 H80            5.7527    -9.2683     1.1723 H       
  81 H81            4.1458    -8.5979     1.5830 H       
  82 H82            4.5304   -11.2599     0.9021 H       
  83 H83            3.0013   -10.3853     0.5552 H       
  84 H84            3.5683   -10.8859    -1.6846 H       
  85 H85            5.3144   -11.0230    -1.3074 H       
@<TRIPOS>BOND
   1    1    2 1
   2    1   14 am
   3    1   45 1
   4    2    3 ar
   5    2    7 ar
   6    3    4 ar
   7    3    8 1
   8    4    5 ar
   9    4   46 1
  10    5    6 ar
  11    5   47 1
  12    6    7 ar
  13    6   17 1
  14    7   48 1
  15    8    9 1
  16    8   10 1
  17    9   13 1
  18    9   49 1
  19    9   50 1
  20   10   11 1
  21   10   51 1
  22   10   52 1
  23   11   12 1
  24   11   53 1
  25   11   54 1
  26   12   13 1
  27   12   20 1
  28   13   55 1
  29   13   56 1
  30   14   15 2
  31   14   16 1
  32   16   26 ar
  33   16   30 ar
  34   17   18 am
  35   17   19 2
  36   18   36 1
  37   18   57 1
  38   20   21 ar
  39   20   25 ar
  40   21   22 ar
  41   21   35 1
  42   22   23 ar
  43   22   58 1
  44   23   24 ar
  45   23   59 1
  46   24   25 ar
  47   24   60 1
  48   25   61 1
  49   26   27 ar
  50   26   33 1
  51   27   28 ar
  52   27   62 1
  53   28   29 ar
  54   28   31 1
  55   29   30 ar
  56   29   63 1
  57   30   64 1
  58   31   32 1
  59   32   65 1
  60   32   66 1
  61   32   67 1
  62   33   34 1
  63   34   68 1
  64   34   69 1
  65   34   70 1
  66   35   71 1
  67   35   72 1
  68   35   73 1
  69   36   37 1
  70   36   74 1
  71   36   75 1
  72   37   38 1
  73   37   76 1
  74   37   77 1
  75   38   39 1
  76   38   78 1
  77   38   79 1
  78   39   40 am
  79   39   41 1
  80   40   44 2
  81   40   43 1
  82   41   42 1
  83   41   80 1
  84   41   81 1
  85   42   43 1
  86   42   82 1
  87   42   83 1
  88   43   84 1
  89   43   85 1

#	End of record

