#	Name: ASD01941090
#	Creating user name:	WinNT
#	Creation time:	15. 06. 2019 20:13

#	Modifying user name:	WinNT
#	Modification time:	15. 06. 2019 20:13

#	Program:	/corina/corina34_cracker 3.40 0067  02.08.2006

@<TRIPOS>MOLECULE
ASD01941090
  51   54    0    0    0
SMALL
NO_CHARGES


@<TRIPOS>ATOM
   1 C1             0.0566     0.8923    -0.2031 C.ar    
   2 C2            -0.9786     0.1741    -0.7895 C.ar    
   3 C3            -2.2320     0.1617    -0.2024 C.ar    
   4 C4            -2.4633     0.8644     0.9727 C.ar    
   5 C5            -1.4483     1.5808     1.5660 C.ar    
   6 C6            -0.1754     1.5983     0.9883 C.ar    
   7 F7            -3.2358    -0.5374    -0.7758 F       
   8 F8            -0.7616    -0.5118    -1.9331 F       
   9 C9             0.9139     2.3631     1.6199 C.2     
  10 O10            2.0454     2.2852     1.1811 O.2     
  11 N11            0.6564     3.1491     2.6841 N.am    
  12 N12            1.3171     0.9071    -0.7901 N.pl3   
  13 C13            2.1921    -0.1667    -0.5952 C.ar    
  14 C14            3.4782    -0.1227    -1.1231 C.ar    
  15 C15            4.3399    -1.1864    -0.9282 C.ar    
  16 C16            3.9233    -2.2926    -0.2096 C.ar    
  17 C17            2.6445    -2.3385     0.3160 C.ar    
  18 C18            1.7806    -1.2766     0.1307 C.ar    
  19 F19            3.8845     0.9573    -1.8257 F       
  20 I20            5.2318    -3.9024     0.0829 I       
  21 C21            1.4506     3.9661     3.6140 C.3     
  22 C22            0.2104     4.8485     3.8126 C.3     
  23 C23           -0.5430     3.5724     3.4224 C.3     
  24 C24           -0.0156     5.2968     5.2578 C.3     
  25 O25            0.0881     5.9095     2.8632 O.3     
  26 H26            0.8025     5.9466     5.5688 H       
  27 N27           -1.2853     6.0297     5.3503 N.3     
  28 C28           -1.6549     6.2709     6.7571 C.3     
  29 C29           -1.8253     7.7949     6.9303 C.3     
  30 C30           -2.0992     8.2825     5.4832 C.3     
  31 C31           -1.1969     7.3324     4.6568 C.3     
  32 H32           -3.4447     0.8492     1.4234 H       
  33 H33           -1.6343     2.1254     2.4799 H       
  34 H34            1.5897     1.6621    -1.3347 H       
  35 H35            5.3388    -1.1537    -1.3375 H       
  36 H36            2.3226    -3.2040     0.8761 H       
  37 H37            0.7826    -1.3138     0.5418 H       
  38 H38            1.7510     3.4305     4.5145 H       
  39 H39            2.2807     4.4855     3.1352 H       
  40 H40           -1.4063     3.7564     2.7830 H       
  41 H41           -0.7757     2.9291     4.2710 H       
  42 H42           -0.0524     4.4227     5.9079 H       
  43 H43            0.1758     5.6258     1.9429 H       
  44 H44           -2.5926     5.7645     6.9862 H       
  45 H45           -0.8651     5.9090     7.4154 H       
  46 H46           -2.6730     8.0167     7.5786 H       
  47 H47           -0.9119     8.2428     7.3215 H       
  48 H48           -3.1487     8.1521     5.2192 H       
  49 H49           -1.7924     9.3207     5.3564 H       
  50 H50           -0.1681     7.6923     4.6550 H       
  51 H51           -1.5712     7.2454     3.6368 H       
@<TRIPOS>BOND
   1    1    2 ar
   2    1   12 1
   3    1    6 ar
   4    2    3 ar
   5    2    8 1
   6    3    4 ar
   7    3    7 1
   8    4    5 ar
   9    4   32 1
  10    5    6 ar
  11    5   33 1
  12    6    9 1
  13    9   10 2
  14    9   11 am
  15   11   21 1
  16   11   23 1
  17   12   13 1
  18   12   34 1
  19   13   14 ar
  20   13   18 ar
  21   14   15 ar
  22   14   19 1
  23   15   16 ar
  24   15   35 1
  25   16   17 ar
  26   16   20 1
  27   17   18 ar
  28   17   36 1
  29   18   37 1
  30   21   22 1
  31   21   38 1
  32   21   39 1
  33   22   23 1
  34   22   24 1
  35   22   25 1
  36   23   40 1
  37   23   41 1
  38   24   26 1
  39   24   27 1
  40   24   42 1
  41   25   43 1
  42   27   28 1
  43   27   31 1
  44   28   29 1
  45   28   44 1
  46   28   45 1
  47   29   30 1
  48   29   46 1
  49   29   47 1
  50   30   31 1
  51   30   48 1
  52   30   49 1
  53   31   50 1
  54   31   51 1

#	End of record

