#	Name: ASD03240886
#	Creating user name:	WinNT
#	Creation time:	15. 06. 2019 20:35

#	Modifying user name:	WinNT
#	Modification time:	15. 06. 2019 20:35

#	Program:	/corina/corina34_cracker 3.40 0067  02.08.2006

@<TRIPOS>MOLECULE
ASD03240886
  79   86    0    0    0
SMALL
NO_CHARGES


@<TRIPOS>ATOM
   1 C1            -0.0144     1.2086     0.0087 C.2     
   2 O2            -0.4763     0.7393    -1.0098 O.2     
   3 N3             3.8089     2.5060    -1.3273 N.3     
   4 C4             3.7697     1.7860    -0.0480 C.3     
   5 C5             2.4582     1.0046     0.0591 C.3     
   6 C6             1.2804     1.9784    -0.0361 C.3     
   7 C7             1.3716     2.7500    -1.3555 C.3     
   8 C8             2.7146     3.4808    -1.4216 C.3     
   9 C9             5.1113     3.1558    -1.5260 C.3     
  10 C10            5.2047     3.6721    -2.9387 C.ar    
  11 C11            4.7787     4.9552    -3.2328 C.ar    
  12 C12            4.8621     5.4338    -4.5241 C.ar    
  13 C13            5.3772     4.6212    -5.5342 C.ar    
  14 C14            5.8050     3.3285    -5.2313 C.ar    
  15 C15            5.7213     2.8632    -3.9351 C.ar    
  16 N16            3.5892     7.2752    -9.0827 N.pl3   
  17 C17            3.6548     7.7549   -10.3628 C.2     
  18 N18            4.6561     7.4243   -11.1974 N.2     
  19 C19            5.6260     6.6249   -10.8350 C.2     
  20 C20            5.6232     6.0731    -9.4818 C.ar    
  21 C21            6.6321     5.2124    -9.0362 C.ar    
  22 C22            6.5512     4.7337    -7.7328 C.ar    
  23 C23            5.4689     5.1286    -6.9224 C.ar    
  24 N24            4.5316     5.9453    -7.3794 N.ar    
  25 C25            4.5701     6.4242    -8.6107 C.ar    
  26 C26            2.5463     8.5714   -10.5412 C.2     
  27 C27            1.8246     8.5699    -9.3541 C.2     
  28 N28            2.4352     7.7984    -8.4870 N.2     
  29 C29            7.5902     3.8179    -7.2037 C.ar    
  30 C30            7.9633     2.6885    -7.9306 C.ar    
  31 C31            8.9314     1.8399    -7.4333 C.ar    
  32 C32            9.5312     2.1083    -6.2160 C.ar    
  33 C33            9.1646     3.2273    -5.4901 C.ar    
  34 C34            8.2019     4.0861    -5.9801 C.ar    
  35 C35            0.5454     9.3267    -9.1054 C.3     
  36 N36           -0.6618     1.0464     1.1796 N.am    
  37 C37           -0.1628     1.4737     2.4895 C.3     
  38 C38           -1.1944     1.0644     3.5535 C.3     
  39 C39           -2.1137     0.0414     2.8255 C.3     
  40 C40           -1.9784     0.4204     1.3405 C.3     
  41 C41           -1.3651    -1.2813     3.0970 C.3     
  42 C42           -0.5935    -1.0300     4.3719 C.2     
  43 C43           -0.5025     0.2475     4.6218 C.2     
  44 H44            4.6102     1.0939     0.0050 H       
  45 H45            3.8351     2.5001     0.7728 H       
  46 H46            2.3985     0.2807    -0.7536 H       
  47 H47            2.4226     0.4828     1.0154 H       
  48 H48            1.3175     2.6777     0.7993 H       
  49 H49            1.2948     2.0536    -2.1904 H       
  50 H50            0.5597     3.4752    -1.4098 H       
  51 H51            2.7850     4.1870    -0.5943 H       
  52 H52            2.7887     4.0197    -2.3662 H       
  53 H53            5.2131     3.9867    -0.8280 H       
  54 H54            5.9083     2.4334    -1.3498 H       
  55 H55            4.3798     5.5832    -2.4499 H       
  56 H56            4.5290     6.4355    -4.7525 H       
  57 H57            6.2043     2.6946    -6.0092 H       
  58 H58            6.0560     1.8640    -3.6986 H       
  59 H59            6.4176     6.3759   -11.5262 H       
  60 H60            7.4485     4.9289    -9.6840 H       
  61 H61            2.2910     9.1112   -11.4411 H       
  62 H62            7.4955     2.4777    -8.8809 H       
  63 H63            9.2210     0.9644    -7.9954 H       
  64 H64           10.2883     1.4414    -5.8308 H       
  65 H65            9.6358     3.4316    -4.5400 H       
  66 H66            7.9197     4.9619    -5.4147 H       
  67 H67           -0.3053     8.7013    -9.3761 H       
  68 H68            0.4797     9.5924    -8.0503 H       
  69 H69            0.5364    10.2337    -9.7097 H       
  70 H70            0.7911     0.9884     2.6960 H       
  71 H71           -0.0340     2.5560     2.4990 H       
  72 H72           -1.7443     1.9160     3.9542 H       
  73 H73           -3.1448     0.0500     3.1788 H       
  74 H74           -2.7620     1.1244     1.0603 H       
  75 H75           -2.0431    -0.4746     0.7217 H       
  76 H76           -2.0741    -2.0974     3.2367 H       
  77 H77           -0.6822    -1.5064     2.2778 H       
  78 H78           -0.1728    -1.8058     4.9945 H       
  79 H79            0.0019     0.6670     5.4796 H       
@<TRIPOS>BOND
   1    1    2 2
   2    1    6 1
   3    1   36 am
   4    3    4 1
   5    3    8 1
   6    3    9 1
   7    4    5 1
   8    4   44 1
   9    4   45 1
  10    5    6 1
  11    5   46 1
  12    5   47 1
  13    6    7 1
  14    6   48 1
  15    7    8 1
  16    7   49 1
  17    7   50 1
  18    8   51 1
  19    8   52 1
  20    9   10 1
  21    9   53 1
  22    9   54 1
  23   10   11 ar
  24   10   15 ar
  25   11   12 ar
  26   11   55 1
  27   12   13 ar
  28   12   56 1
  29   13   14 ar
  30   13   23 1
  31   14   15 ar
  32   14   57 1
  33   15   58 1
  34   16   17 1
  35   16   25 1
  36   16   28 1
  37   17   18 1
  38   17   26 2
  39   18   19 2
  40   19   20 1
  41   19   59 1
  42   20   21 ar
  43   20   25 ar
  44   21   22 ar
  45   21   60 1
  46   22   23 ar
  47   22   29 1
  48   23   24 ar
  49   24   25 ar
  50   26   27 1
  51   26   61 1
  52   27   28 2
  53   27   35 1
  54   29   30 ar
  55   29   34 ar
  56   30   31 ar
  57   30   62 1
  58   31   32 ar
  59   31   63 1
  60   32   33 ar
  61   32   64 1
  62   33   34 ar
  63   33   65 1
  64   34   66 1
  65   35   67 1
  66   35   68 1
  67   35   69 1
  68   36   37 1
  69   36   40 1
  70   37   38 1
  71   37   70 1
  72   37   71 1
  73   38   39 1
  74   38   43 1
  75   38   72 1
  76   39   40 1
  77   39   41 1
  78   39   73 1
  79   40   74 1
  80   40   75 1
  81   41   42 1
  82   41   76 1
  83   41   77 1
  84   42   43 2
  85   42   78 1
  86   43   79 1

#	End of record

