#	Name: ASD06710025
#	Creating user name:	WinNT
#	Creation time:	15. 06. 2019 21:08

#	Modifying user name:	WinNT
#	Modification time:	15. 06. 2019 21:08

#	Program:	/corina/corina34_cracker 3.40 0067  02.08.2006

@<TRIPOS>MOLECULE
ASD06710025
  53   54    0    0    0
SMALL
NO_CHARGES


@<TRIPOS>ATOM
   1 C1             0.9017    -0.2981    -0.6568 C.ar    
   2 C2             0.0042     0.0240     0.3509 C.ar    
   3 C3             0.2993     1.0491     1.2379 C.ar    
   4 C4             1.4855     1.7465     1.1157 C.ar    
   5 C5             2.3783     1.4236     0.1105 C.ar    
   6 C6             2.0865     0.4023    -0.7747 C.ar    
   7 C7             2.5179     4.1182    -1.1163 C.ar    
   8 C8             3.3761     3.6598    -0.1340 C.ar    
   9 C9             3.6714     2.1863    -0.0208 C.3     
  10 C10            2.2456     5.4684    -1.2222 C.ar    
  11 C11            2.8342     6.3647    -0.3418 C.ar    
  12 C12            3.6954     5.9022     0.6427 C.ar    
  13 C13            3.9644     4.5510     0.7444 C.ar    
  14 O14           -1.1623    -0.6633     0.4688 O.3     
  15 O15            2.5683     7.6935    -0.4442 O.3     
  16 C16           -2.0384    -0.2773     1.5297 C.3     
  17 C17           -3.2900    -1.1568     1.5030 C.3     
  18 C18           -4.1698    -0.8286     2.7110 C.3     
  19 O19           -4.0208    -0.9090     0.3002 O.3     
  20 C20            3.2097     8.5577     0.4959 C.3     
  21 C21            2.7920    10.0046     0.2259 C.3     
  22 O22            1.3920    10.1502     0.4726 O.3     
  23 Br23          -5.6963    -2.0663     2.7655 Br      
  24 C24            3.5727    10.9417     1.1497 C.3     
  25 Br25           3.1556    12.8081     0.6943 Br      
  26 C26            4.5401     1.9336     1.2131 C.3     
  27 C27            4.4152     1.7176    -1.2729 C.3     
  28 H28            0.6762    -1.0987    -1.3457 H       
  29 H29           -0.3979     1.3020     2.0230 H       
  30 H30            1.7156     2.5449     1.8057 H       
  31 H31            2.7857     0.1517    -1.5588 H       
  32 H32            2.0634     3.4206    -1.8042 H       
  33 H33            1.5754     5.8261    -1.9898 H       
  34 H34            4.1551     6.5979     1.3290 H       
  35 H35            4.6344     4.1905     1.5108 H       
  36 H36           -1.5282    -0.4002     2.4851 H       
  37 H37           -2.3250     0.7666     1.4025 H       
  38 H38           -2.9976    -2.2061     1.5409 H       
  39 H39           -3.5852    -0.9322     3.6251 H       
  40 H40           -4.5348     0.1951     2.6272 H       
  41 H41           -4.3135     0.0071     0.1995 H       
  42 H42            2.9150     8.2771     1.5071 H       
  43 H43            4.2911     8.4667     0.3941 H       
  44 H44            3.0061    10.2568    -0.8126 H       
  45 H45            1.1286     9.9416     1.3793 H       
  46 H46            3.2914    10.7487     2.1849 H       
  47 H47            4.6414    10.7673     1.0251 H       
  48 H48            4.0102     2.2676     2.1051 H       
  49 H49            4.7536     0.8679     1.2950 H       
  50 H50            5.4754     2.4853     1.1181 H       
  51 H51            5.3504     2.2693    -1.3679 H       
  52 H52            4.6287     0.6518    -1.1910 H       
  53 H53            3.7963     1.8976    -2.1519 H       
@<TRIPOS>BOND
   1    1    2 ar
   2    1    6 ar
   3    1   28 1
   4    2    3 ar
   5    2   14 1
   6    3    4 ar
   7    3   29 1
   8    4    5 ar
   9    4   30 1
  10    5    6 ar
  11    5    9 1
  12    6   31 1
  13    7    8 ar
  14    7   10 ar
  15    7   32 1
  16    8    9 1
  17    8   13 ar
  18    9   26 1
  19    9   27 1
  20   10   11 ar
  21   10   33 1
  22   11   12 ar
  23   11   15 1
  24   12   13 ar
  25   12   34 1
  26   13   35 1
  27   14   16 1
  28   15   20 1
  29   16   17 1
  30   16   36 1
  31   16   37 1
  32   17   18 1
  33   17   19 1
  34   17   38 1
  35   18   23 1
  36   18   39 1
  37   18   40 1
  38   19   41 1
  39   20   21 1
  40   20   42 1
  41   20   43 1
  42   21   24 1
  43   21   22 1
  44   21   44 1
  45   22   45 1
  46   24   25 1
  47   24   46 1
  48   24   47 1
  49   26   48 1
  50   26   49 1
  51   26   50 1
  52   27   51 1
  53   27   52 1
  54   27   53 1

#	End of record

