#	Name: ASD01810792
#	Creating user name:	WinNT
#	Creation time:	15. 06. 2019 19:25

#	Modifying user name:	WinNT
#	Modification time:	15. 06. 2019 19:25

#	Program:	/corina/corina34_cracker 3.40 0067  02.08.2006

@<TRIPOS>MOLECULE
ASD01810792
  45   47    0    0    0
SMALL
NO_CHARGES


@<TRIPOS>ATOM
   1 C1            -0.0096     1.4718     0.0890 C.2     
   2 C2             0.0061    -0.0047     0.0403 C.ar    
   3 C3             1.2149    -0.6874    -0.1186 C.ar    
   4 C4             1.2308    -2.0669    -0.1637 C.ar    
   5 C5             0.0540    -2.7814    -0.0522 C.ar    
   6 C6            -1.1606    -2.1119     0.1070 C.ar    
   7 C7            -1.1840    -0.7203     0.1587 C.ar    
   8 O8             1.0357     2.0904     0.0965 O.2     
   9 O9            -1.1833     2.1323     0.1194 O.3     
  10 C10            2.5037     0.0839    -0.2416 C.3     
  11 N11           -3.7817    -4.5088     0.3307 N.2     
  12 N12           -2.5439    -4.1877     0.1997 N.2     
  13 C13           -2.4200    -2.8794     0.2262 C.2     
  14 N14           -3.6769    -2.3619     0.3855 N.pl3   
  15 C15           -4.5136    -3.4333     0.4475 C.2     
  16 C16           -6.0100    -3.3874     0.6194 C.3     
  17 C17           -6.6781    -4.1625    -0.5180 C.3     
  18 N18           -8.1368    -4.1178    -0.3504 N.3     
  19 C19           -8.6439    -2.7490    -0.5153 C.3     
  20 C20           -8.8020    -5.0411    -1.2794 C.3     
  21 C21            0.0813    -4.2873    -0.1031 C.3     
  22 C22            0.6351    -4.9414    -1.3705 C.3     
  23 C23            1.4500    -4.9704    -0.0759 C.3     
  24 H24            2.1676    -2.5899    -0.2871 H       
  25 H25           -2.1206    -0.1979     0.2862 H       
  26 H26           -1.1430     3.0979     0.1508 H       
  27 H27            2.8681     0.3433     0.7524 H       
  28 H28            3.2465    -0.5287    -0.7525 H       
  29 H29            2.3286     0.9951    -0.8136 H       
  30 H30           -3.9210    -1.4249     0.4427 H       
  31 H31           -6.2801    -3.8386     1.5742 H       
  32 H32           -6.3464    -2.3508     0.5993 H       
  33 H33           -6.4080    -3.7114    -1.4728 H       
  34 H34           -6.3417    -5.1991    -0.4979 H       
  35 H35           -8.3954    -2.3872    -1.5131 H       
  36 H36           -9.7262    -2.7444    -0.3863 H       
  37 H37           -8.1863    -2.0996     0.2310 H       
  38 H38           -8.4593    -6.0581    -1.0885 H       
  39 H39           -9.8810    -4.9880    -1.1341 H       
  40 H40           -8.5593    -4.7623    -2.3048 H       
  41 H41           -0.7425    -4.7898     0.4039 H       
  42 H42            0.1759    -5.8745    -1.6971 H       
  43 H43            0.9797    -4.2826    -2.1675 H       
  44 H44            2.3308    -4.3306    -0.0212 H       
  45 H45            1.5270    -5.9225     0.4492 H       
@<TRIPOS>BOND
   1    1    2 1
   2    1    8 2
   3    1    9 1
   4    2    3 ar
   5    2    7 ar
   6    3    4 ar
   7    3   10 1
   8    4    5 ar
   9    4   24 1
  10    5    6 ar
  11    5   21 1
  12    6    7 ar
  13    6   13 1
  14    7   25 1
  15    9   26 1
  16   10   27 1
  17   10   28 1
  18   10   29 1
  19   11   12 1
  20   11   15 2
  21   12   13 2
  22   13   14 1
  23   14   15 1
  24   14   30 1
  25   15   16 1
  26   16   17 1
  27   16   31 1
  28   16   32 1
  29   17   18 1
  30   17   33 1
  31   17   34 1
  32   18   19 1
  33   18   20 1
  34   19   35 1
  35   19   36 1
  36   19   37 1
  37   20   38 1
  38   20   39 1
  39   20   40 1
  40   21   22 1
  41   21   23 1
  42   21   41 1
  43   22   23 1
  44   22   42 1
  45   22   43 1
  46   23   44 1
  47   23   45 1

#	End of record

