#	Name: ASD05313020
#	Creating user name:	WinNT
#	Creation time:	15. 06. 2019 20:58

#	Modifying user name:	WinNT
#	Modification time:	15. 06. 2019 20:58

#	Program:	/corina/corina34_cracker 3.40 0067  02.08.2006

@<TRIPOS>MOLECULE
ASD05313020
  41   44    0    0    0
SMALL
NO_CHARGES


@<TRIPOS>ATOM
   1 C1            -0.0729     0.8180     1.0206 C.2     
   2 C2             0.1133    -0.6185     0.5940 C.3     
   3 N3             0.9357     1.7347     1.0468 N.pl3   
   4 N4             1.4570    -0.7173    -0.0070 N.am    
   5 C5             2.5716    -0.0374     0.6699 C.3     
   6 C6             2.3218     1.4754     0.6621 C.3     
   7 N7            -0.8995     2.6439     1.7018 N.2     
   8 N8            -1.1551     1.4121     1.4222 N.2     
   9 C9             0.3766     2.8940     1.4893 C.2     
  10 C10            2.3345     4.4061     1.1514 C.ar    
  11 C11            1.0690     4.1850     1.6956 C.ar    
  12 C12            0.4655     5.2049     2.4394 C.ar    
  13 C13            1.1550     6.3939     2.6026 C.ar    
  14 C14            2.4064     6.5346     2.0310 C.ar    
  15 N15            2.9507     5.5554     1.3342 N.ar    
  16 C16            1.6575    -1.4117    -1.1445 C.2     
  17 O17            2.7493    -1.4008    -1.6788 O.2     
  18 C18            0.5501    -2.1863    -1.7423 C.ar    
  19 C19            0.3184    -2.1316    -3.1192 C.ar    
  20 C20           -0.7186    -2.8584    -3.6704 C.ar    
  21 C21           -1.5263    -3.6381    -2.8625 C.ar    
  22 C22           -1.3020    -3.6959    -1.4982 C.ar    
  23 C23           -0.2658    -2.9805    -0.9349 C.ar    
  24 C24           -0.9709    -2.8014    -5.1551 C.3     
  25 F25           -2.0647    -3.6134    -5.4737 F       
  26 F26           -1.2444    -1.4820    -5.5313 F       
  27 F27            0.1621    -3.2558    -5.8384 F       
  28 Cl28           1.3308    -1.1524    -4.1340 Cl      
  29 H29            0.0440    -1.2760     1.4606 H       
  30 H30           -0.6442    -0.8894    -0.1414 H       
  31 H31            2.6412    -0.3891     1.6993 H       
  32 H32            3.5026    -0.2554     0.1465 H       
  33 H33            2.5018     1.8685    -0.3385 H       
  34 H34            2.9934     1.9597     1.3710 H       
  35 H35            2.8146     3.6263     0.5788 H       
  36 H36           -0.5134     5.0680     2.8746 H       
  37 H37            0.7201     7.2033     3.1702 H       
  38 H38            2.9467     7.4612     2.1568 H       
  39 H39           -2.3361    -4.2043    -3.2984 H       
  40 H40           -1.9371    -4.3063    -0.8735 H       
  41 H41           -0.0892    -3.0310     0.1294 H       
@<TRIPOS>BOND
   1    1    2 1
   2    1    3 1
   3    1    8 2
   4    2    4 1
   5    2   29 1
   6    2   30 1
   7    3    6 1
   8    3    9 1
   9    4    5 1
  10    4   16 am
  11    5    6 1
  12    5   31 1
  13    5   32 1
  14    6   33 1
  15    6   34 1
  16    7    8 1
  17    7    9 2
  18    9   11 1
  19   10   11 ar
  20   10   15 ar
  21   10   35 1
  22   11   12 ar
  23   12   13 ar
  24   12   36 1
  25   13   14 ar
  26   13   37 1
  27   14   15 ar
  28   14   38 1
  29   16   17 2
  30   16   18 1
  31   18   19 ar
  32   18   23 ar
  33   19   20 ar
  34   19   28 1
  35   20   21 ar
  36   20   24 1
  37   21   22 ar
  38   21   39 1
  39   22   23 ar
  40   22   40 1
  41   23   41 1
  42   24   25 1
  43   24   26 1
  44   24   27 1

#	End of record

