#	Name: ASD01915311
#	Creating user name:	WinNT
#	Creation time:	15. 06. 2019 20:05

#	Modifying user name:	WinNT
#	Modification time:	15. 06. 2019 20:05

#	Program:	/corina/corina34_cracker 3.40 0067  02.08.2006

@<TRIPOS>MOLECULE
ASD01915311
  38   41    0    0    0
SMALL
NO_CHARGES


@<TRIPOS>ATOM
   1 N1             0.0250     1.3221    -0.0221 N.2     
   2 C2             0.0738    -0.0289    -0.0517 C.2     
   3 N3             1.3362    -0.3693    -0.0699 N.2     
   4 O4             2.0353     0.6217    -0.0545 O.3     
   5 C5             1.2730     1.7193    -0.0242 C.2     
   6 C6             1.7584     3.1458     0.0020 C.3     
   7 C7            -1.0880    -0.9525    -0.0612 C.ar    
   8 C8            -0.8853    -2.3302    -0.0928 C.ar    
   9 C9            -1.9705    -3.1853    -0.1016 C.ar    
  10 C10           -3.2567    -2.6745    -0.0791 C.ar    
  11 C11           -3.4625    -1.3070    -0.0477 C.ar    
  12 C12           -2.3853    -0.4445    -0.0328 C.ar    
  13 N13            2.8763     3.2763     0.9480 N.am    
  14 C14            4.0743     3.7110     0.2071 C.3     
  15 C15            3.5241     4.4212    -1.0549 C.3     
  16 C16            2.2882     3.5456    -1.3912 C.3     
  17 C17            2.8155     3.0386     2.2733 C.2     
  18 O18            1.7472     2.7833     2.7974 O.2     
  19 C19            4.0362     3.0875     3.0833 C.2     
  20 Cl20          -1.7204    -4.9027    -0.1415 Cl      
  21 C21            4.0887     2.9838     4.4449 C.2     
  22 C22            5.3659     3.0626     4.9473 C.2     
  23 C23            6.3274     3.2251     4.0309 C.2     
  24 S24            5.6681     3.2815     2.4582 S.3     
  25 H25            0.9447     3.8087     0.2960 H       
  26 H26            0.1182    -2.7292    -0.1108 H       
  27 H27           -4.1026    -3.3459    -0.0864 H       
  28 H28           -4.4682    -0.9136    -0.0305 H       
  29 H29           -2.5476     0.6230    -0.0079 H       
  30 H30            4.6607     4.4059     0.8082 H       
  31 H31            4.6789     2.8493    -0.0758 H       
  32 H32            3.2274     5.4454    -0.8287 H       
  33 H33            4.2524     4.3971    -1.8656 H       
  34 H34            2.5837     2.6634    -1.9592 H       
  35 H35            1.5423     4.1243    -1.9360 H       
  36 H36            3.2139     2.8533     5.0646 H       
  37 H37            5.5778     2.9983     6.0043 H       
  38 H38            7.3805     3.3056     4.2563 H       
@<TRIPOS>BOND
   1    1    2 1
   2    1    5 2
   3    2    3 2
   4    2    7 1
   5    3    4 1
   6    4    5 1
   7    5    6 1
   8    6   13 1
   9    6   16 1
  10    6   25 1
  11    7    8 ar
  12    7   12 ar
  13    8    9 ar
  14    8   26 1
  15    9   10 ar
  16    9   20 1
  17   10   11 ar
  18   10   27 1
  19   11   12 ar
  20   11   28 1
  21   12   29 1
  22   13   14 1
  23   13   17 am
  24   14   15 1
  25   14   30 1
  26   14   31 1
  27   15   16 1
  28   15   32 1
  29   15   33 1
  30   16   34 1
  31   16   35 1
  32   17   18 2
  33   17   19 1
  34   19   21 2
  35   19   24 1
  36   21   22 1
  37   21   36 1
  38   22   23 2
  39   22   37 1
  40   23   24 1
  41   23   38 1

#	End of record

