#	Name: ASD02570007
#	Creating user name:	WinNT
#	Creation time:	15. 06. 2019 20:25

#	Modifying user name:	WinNT
#	Modification time:	15. 06. 2019 20:25

#	Program:	/corina/corina34_cracker 3.40 0067  02.08.2006

@<TRIPOS>MOLECULE
ASD02570007
  71   74    0    0    0
SMALL
NO_CHARGES


@<TRIPOS>ATOM
   1 C1            -0.1542     1.5489    -0.2349 C.3     
   2 C2             0.1337     0.1134     0.2204 C.3     
   3 C3             0.8319    -0.6228    -0.9210 C.3     
   4 C4             2.0089     0.1724    -1.4239 C.ar    
   5 C5             2.1631     1.5161    -1.1569 C.ar    
   6 C6             1.1733     2.2978    -0.3327 C.3     
   7 C7             2.9612    -0.4976    -2.1850 C.ar    
   8 C8             4.0599     0.1656    -2.6811 C.ar    
   9 C9             4.2209     1.5286    -2.4171 C.ar    
  10 C10            3.2647     2.1959    -1.6526 C.ar    
  11 C11            0.9365     3.6603    -0.9872 C.3     
  12 C12            1.7402     2.5060     1.0730 C.3     
  13 C13            1.3197    -1.9836    -0.4197 C.3     
  14 C14           -0.1603    -0.8343    -2.0663 C.3     
  15 C15            5.3913     2.2543    -2.9422 C.2     
  16 C16            6.4108     2.8278    -1.9921 C.3     
  17 C17            5.5492     2.4043    -4.2672 C.2     
  18 C18            6.7958     2.9816    -4.7999 C.ar    
  19 C19            8.0173     2.7069    -4.1783 C.ar    
  20 C20            9.1805     3.2491    -4.6800 C.ar    
  21 C21            9.1404     4.0678    -5.8014 C.ar    
  22 C22            7.9290     4.3440    -6.4222 C.ar    
  23 C23            6.7613     3.8010    -5.9318 C.ar    
  24 O24           10.2898     4.6005    -6.2922 O.3     
  25 C25           10.1770     5.4335    -7.4478 C.3     
  26 C26           11.5644     5.9371    -7.8508 C.3     
  27 N27           12.3950     4.8005    -8.2706 N.3     
  28 C28           13.6475     5.2624    -8.8866 C.3     
  29 C29           14.5068     4.0497    -9.2539 C.3     
  30 O30           13.7624     3.1892   -10.1203 O.3     
  31 C31           12.5368     2.7201    -9.5518 C.3     
  32 C32           11.6575     3.9193    -9.1876 C.3     
  33 H33           -0.6403     1.5342    -1.2104 H       
  34 H34           -0.8012     2.0416     0.4909 H       
  35 H35            0.7810     0.1292     1.0973 H       
  36 H36           -0.8023    -0.3894     0.4634 H       
  37 H37            2.8364    -1.5507    -2.3893 H       
  38 H38            4.7936    -0.3640    -3.2706 H       
  39 H39            3.3831     3.2492    -1.4453 H       
  40 H40            0.5416     3.5166    -1.9929 H       
  41 H41            0.2206     4.2290    -0.3936 H       
  42 H42            1.8784     4.2061    -1.0412 H       
  43 H43            2.6781     3.0576     1.0085 H       
  44 H44            1.0267     3.0713     1.6725 H       
  45 H45            1.9198     1.5373     1.5395 H       
  46 H46            0.4684    -2.5698    -0.0735 H       
  47 H47            1.8187    -2.5124    -1.2318 H       
  48 H48            2.0195    -1.8381     0.4033 H       
  49 H49           -0.5183     0.1325    -2.4201 H       
  50 H50            0.3344    -1.3597    -2.8832 H       
  51 H51           -1.0039    -1.4264    -1.7115 H       
  52 H52            7.1939     2.0915    -1.8116 H       
  53 H53            6.8495     3.7252    -2.4284 H       
  54 H54            5.9264     3.0817    -1.0493 H       
  55 H55            4.7625     2.1018    -4.9425 H       
  56 H56            8.0493     2.0709    -3.3059 H       
  57 H57           10.1247     3.0374    -4.2005 H       
  58 H58            7.9027     4.9815    -7.2937 H       
  59 H59            5.8199     4.0161    -6.4153 H       
  60 H60            9.7461     4.8600    -8.2685 H       
  61 H61            9.5335     6.2836    -7.2215 H       
  62 H62           11.4693     6.6422    -8.6766 H       
  63 H63           12.0316     6.4341    -7.0006 H       
  64 H64           13.4212     5.8341    -9.7866 H       
  65 H65           14.1894     5.8922    -8.1811 H       
  66 H66           15.4107     4.3848    -9.7625 H       
  67 H67           14.7778     3.5078    -8.3478 H       
  68 H68           12.0160     2.0935   -10.2759 H       
  69 H69           12.7505     2.1395    -8.6544 H       
  70 H70           10.7469     3.5688    -8.7018 H       
  71 H71           11.3995     4.4696   -10.0924 H       
@<TRIPOS>BOND
   1    1    2 1
   2    1    6 1
   3    1   33 1
   4    1   34 1
   5    2    3 1
   6    2   35 1
   7    2   36 1
   8    3    4 1
   9    3   13 1
  10    3   14 1
  11    4    5 ar
  12    4    7 ar
  13    5    6 1
  14    5   10 ar
  15    6   11 1
  16    6   12 1
  17    7    8 ar
  18    7   37 1
  19    8    9 ar
  20    8   38 1
  21    9   10 ar
  22    9   15 1
  23   10   39 1
  24   11   40 1
  25   11   41 1
  26   11   42 1
  27   12   43 1
  28   12   44 1
  29   12   45 1
  30   13   46 1
  31   13   47 1
  32   13   48 1
  33   14   49 1
  34   14   50 1
  35   14   51 1
  36   15   16 1
  37   15   17 2
  38   16   52 1
  39   16   53 1
  40   16   54 1
  41   17   18 1
  42   17   55 1
  43   18   19 ar
  44   18   23 ar
  45   19   20 ar
  46   19   56 1
  47   20   21 ar
  48   20   57 1
  49   21   22 ar
  50   21   24 1
  51   22   23 ar
  52   22   58 1
  53   23   59 1
  54   24   25 1
  55   25   26 1
  56   25   60 1
  57   25   61 1
  58   26   27 1
  59   26   62 1
  60   26   63 1
  61   27   28 1
  62   27   32 1
  63   28   29 1
  64   28   64 1
  65   28   65 1
  66   29   30 1
  67   29   66 1
  68   29   67 1
  69   30   31 1
  70   31   32 1
  71   31   68 1
  72   31   69 1
  73   32   70 1
  74   32   71 1

#	End of record

