#	Name: ASD01890222
#	Creating user name:	WinNT
#	Creation time:	15. 06. 2019 19:50

#	Modifying user name:	WinNT
#	Modification time:	15. 06. 2019 19:50

#	Program:	/corina/corina34_cracker 3.40 0067  02.08.2006

@<TRIPOS>MOLECULE
ASD01890222
  40   41    0    0    0
SMALL
NO_CHARGES


@<TRIPOS>ATOM
   1 C1             0.1428    -2.3310    -1.0880 C.2     
   2 C2             0.9328    -1.9503     0.1376 C.3     
   3 C3             1.3799    -0.4915     0.0233 C.3     
   4 C4             2.0430    -0.0573     1.3319 C.3     
   5 C5             2.3536     1.4161     1.2729 C.2     
   6 O6            -0.1445    -1.4903    -1.9069 O.2     
   7 O7            -0.2370    -3.6052    -1.2726 O.3     
   8 O8             1.9756     2.0783     0.3296 O.2     
   9 N9             3.0514     1.9981     2.2684 N.am    
  10 C10            2.3656    -0.3555    -1.1086 C.ar    
  11 C11            2.0845     0.4809    -2.1728 C.ar    
  12 C12            2.9880     0.6061    -3.2111 C.ar    
  13 C13            4.1741    -0.1058    -3.1853 C.ar    
  14 C14            4.4548    -0.9427    -2.1200 C.ar    
  15 C15            3.5530    -1.0627    -1.0795 C.ar    
  16 Cl16           5.3092     0.0505    -4.4894 Cl      
  17 C17            3.2404     3.3869     2.2728 C.ar    
  18 C18            4.2777     3.9494     3.0169 C.ar    
  19 C19            4.4590     5.3242     3.0170 C.ar    
  20 C20            3.6129     6.1330     2.2810 C.ar    
  21 C21            2.5847     5.5755     1.5441 C.ar    
  22 C22            2.4004     4.2050     1.5333 C.ar    
  23 N23            5.1322     3.1290     3.7611 N.pl3   
  24 H24            0.3095    -2.0709     1.0236 H       
  25 H25            1.8090    -2.5935     0.2194 H       
  26 H26            0.5132     0.1399    -0.1719 H       
  27 H27            1.3669    -0.2531     2.1642 H       
  28 H28            2.9668    -0.6180     1.4747 H       
  29 H29           -0.7420    -3.8011    -2.0736 H       
  30 H30            3.4229     1.4558     2.9817 H       
  31 H31            1.1584     1.0363    -2.1930 H       
  32 H32            2.7682     1.2592    -4.0427 H       
  33 H33            5.3805    -1.4987    -2.0993 H       
  34 H34            3.7740    -1.7126    -0.2457 H       
  35 H35            5.2608     5.7632     3.5921 H       
  36 H36            3.7555     7.2036     2.2821 H       
  37 H37            1.9262     6.2118     0.9715 H       
  38 H38            1.5993     3.7725     0.9524 H       
  39 H39            5.0038     2.1675     3.7603 H       
  40 H40            5.8530     3.5216     4.2779 H       
@<TRIPOS>BOND
   1    1    2 1
   2    1    6 2
   3    1    7 1
   4    2    3 1
   5    2   24 1
   6    2   25 1
   7    3    4 1
   8    3   10 1
   9    3   26 1
  10    4    5 1
  11    4   27 1
  12    4   28 1
  13    5    8 2
  14    5    9 am
  15    7   29 1
  16    9   17 1
  17    9   30 1
  18   10   11 ar
  19   10   15 ar
  20   11   12 ar
  21   11   31 1
  22   12   13 ar
  23   12   32 1
  24   13   14 ar
  25   13   16 1
  26   14   15 ar
  27   14   33 1
  28   15   34 1
  29   17   18 ar
  30   17   22 ar
  31   18   19 ar
  32   18   23 1
  33   19   20 ar
  34   19   35 1
  35   20   21 ar
  36   20   36 1
  37   21   22 ar
  38   21   37 1
  39   22   38 1
  40   23   39 1
  41   23   40 1

#	End of record

