#	Name: ASD01911463
#	Creating user name:	WinNT
#	Creation time:	15. 06. 2019 19:57

#	Modifying user name:	WinNT
#	Modification time:	15. 06. 2019 19:57

#	Program:	/corina/corina34_cracker 3.40 0067  02.08.2006

@<TRIPOS>MOLECULE
ASD01911463
  35   36    0    0    0
SMALL
NO_CHARGES


@<TRIPOS>ATOM
   1 O1            -0.0161     1.3335     0.0094 O.3     
   2 C2             0.0021    -0.0041     0.0020 C.2     
   3 N3             1.2348    -0.5293    -0.0126 N.am    
   4 C4             2.2183     0.5645    -0.0161 C.3     
   5 C5             1.3508     1.8380    -0.0010 C.3     
   6 O6            -1.0070    -0.6809     0.0087 O.2     
   7 C7             1.6043     2.6745    -1.2567 C.3     
   8 C8             1.5361    -1.8906    -0.0228 C.ar    
   9 C9             0.5092    -2.8225    -0.1238 C.ar    
  10 C10            0.8217    -4.1701    -0.1327 C.ar    
  11 C11            2.1570    -4.5412    -0.0400 C.ar    
  12 C12            3.1255    -3.5614     0.0577 C.ar    
  13 N13            2.7973    -2.2835     0.0584 N.ar    
  14 I14            2.6961    -6.5656    -0.0475 I       
  15 C15            1.6283     2.6610     1.2586 C.3     
  16 C16            1.3974     1.7923     2.4967 C.3     
  17 C17            3.0786     3.1479     1.2404 C.3     
  18 C18            0.6863     3.8660     1.2982 C.3     
  19 H19            2.8457     0.5181     0.8740 H       
  20 H20            2.8286     0.5277    -0.9184 H       
  21 H21            0.9237     3.5259    -1.2696 H       
  22 H22            2.6338     3.0325    -1.2531 H       
  23 H23            1.4359     2.0613    -2.1419 H       
  24 H24           -0.5188    -2.4986    -0.1939 H       
  25 H25            0.0451    -4.9167    -0.2098 H       
  26 H26            4.1652    -3.8448     0.1301 H       
  27 H27            2.0685     0.9338     2.4684 H       
  28 H28            1.5951     2.3786     3.3940 H       
  29 H29            0.3642     1.4454     2.5096 H       
  30 H30            3.2431     3.7668     0.3584 H       
  31 H31            3.2763     3.7343     2.1377 H       
  32 H32            3.7497     2.2894     1.2122 H       
  33 H33           -0.3470     3.5192     1.3111 H       
  34 H34            0.8840     4.4524     2.1955 H       
  35 H35            0.8508     4.4849     0.4162 H       
@<TRIPOS>BOND
   1    1    2 1
   2    1    5 1
   3    2    3 am
   4    2    6 2
   5    3    4 1
   6    3    8 1
   7    4    5 1
   8    4   19 1
   9    4   20 1
  10    5    7 1
  11    5   15 1
  12    7   21 1
  13    7   22 1
  14    7   23 1
  15    8    9 ar
  16    8   13 ar
  17    9   10 ar
  18    9   24 1
  19   10   11 ar
  20   10   25 1
  21   11   12 ar
  22   11   14 1
  23   12   13 ar
  24   12   26 1
  25   15   16 1
  26   15   18 1
  27   15   17 1
  28   16   27 1
  29   16   28 1
  30   16   29 1
  31   17   30 1
  32   17   31 1
  33   17   32 1
  34   18   33 1
  35   18   34 1
  36   18   35 1

#	End of record

