#	Name: ASD03091617
#	Creating user name:	WinNT
#	Creation time:	15. 06. 2019 20:31

#	Modifying user name:	WinNT
#	Modification time:	15. 06. 2019 20:31

#	Program:	/corina/corina34_cracker 3.40 0067  02.08.2006

@<TRIPOS>MOLECULE
ASD03091617
  46   49    0    0    0
SMALL
NO_CHARGES


@<TRIPOS>ATOM
   1 Cl1            0.0000     0.0000     0.0000 Cl      
   2 H2             0.0000     1.3700     0.0000 H       
   3 C3            13.7097    11.9236     6.5858 C.ar    
   4 C4            13.7286    10.5251     6.5781 C.ar    
   5 C5            14.9711     9.8544     6.5619 C.ar    
   6 C6            16.1686    10.6096     6.5539 C.ar    
   7 C7            16.1106    12.0197     6.5625 C.ar    
   8 C8            14.9155    12.6549     6.5782 C.ar    
   9 O9            12.4530    10.0974     6.5887 O.3     
  10 C10           11.6156    11.1563     6.6029 C.2     
  11 C11           12.3441    12.3034     6.6066 C.2     
  12 C12           10.1488    11.0804     6.6166 C.2     
  13 O13            9.4869    12.1012     6.6284 O.2     
  14 N14            9.5361     9.8800     6.6160 N.am    
  15 N15            6.8208     8.6753     8.4053 N.3     
  16 C16            7.5679     9.8956     8.0725 C.3     
  17 C17            8.0731     9.8043     6.6297 C.3     
  18 C18            7.6221     8.4660     6.0312 C.3     
  19 C19            6.0906     8.3974     6.0848 C.3     
  20 C20            5.6405     8.5271     7.5427 C.3     
  21 C21            7.6840     7.4890     8.3239 C.3     
  22 C22            8.1930     7.3294     6.8886 C.3     
  23 C23           15.0384     8.4536     6.5542 C.ar    
  24 C24           16.2533     7.8357     6.5391 C.ar    
  25 C25           17.4309     8.5770     6.5317 C.ar    
  26 C26           17.4014     9.9396     6.5379 C.ar    
  27 H27           17.0246    12.5949     6.5566 H       
  28 H28           14.8850    13.7344     6.5843 H       
  29 H29           11.9568    13.3115     6.6173 H       
  30 H30           10.0638     9.0661     6.6066 H       
  31 H31            6.9140    10.7617     8.1747 H       
  32 H32            8.4164     9.9984     8.7490 H       
  33 H33            7.6575    10.6246     6.0445 H       
  34 H34            7.9652     8.3819     5.0000 H       
  35 H35            5.6678     9.2129     5.4981 H       
  36 H36            5.7535     7.4423     5.6821 H       
  37 H37            5.0874     7.6340     7.8334 H       
  38 H38            5.0000     9.4027     7.6490 H       
  39 H39            8.5313     7.6087     8.9991 H       
  40 H40            7.1141     6.6044     8.6082 H       
  41 H41            7.8643     6.3700     6.4891 H       
  42 H42            9.2819     7.3770     6.8799 H       
  43 H43           14.1316     7.8670     6.5606 H       
  44 H44           16.3026     6.7568     6.5332 H       
  45 H45           18.3820     8.0652     6.5204 H       
  46 H46           18.3236    10.5017     6.5320 H       
@<TRIPOS>BOND
   1    1    2 1
   2    3    4 ar
   3    3    8 ar
   4    3   11 1
   5    4    5 ar
   6    4    9 1
   7    5    6 ar
   8    5   23 ar
   9    6    7 ar
  10    6   26 ar
  11    7    8 ar
  12    7   27 1
  13    8   28 1
  14    9   10 1
  15   10   11 2
  16   10   12 1
  17   11   29 1
  18   12   13 2
  19   12   14 am
  20   14   17 1
  21   14   30 1
  22   15   16 1
  23   15   20 1
  24   15   21 1
  25   16   17 1
  26   16   31 1
  27   16   32 1
  28   17   18 1
  29   17   33 1
  30   18   19 1
  31   18   22 1
  32   18   34 1
  33   19   20 1
  34   19   35 1
  35   19   36 1
  36   20   37 1
  37   20   38 1
  38   21   22 1
  39   21   39 1
  40   21   40 1
  41   22   41 1
  42   22   42 1
  43   23   24 ar
  44   23   43 1
  45   24   25 ar
  46   24   44 1
  47   25   26 ar
  48   25   45 1
  49   26   46 1

#	End of record

