#	Name: ASD03430881
#	Creating user name:	WinNT
#	Creation time:	15. 06. 2019 20:41

#	Modifying user name:	WinNT
#	Modification time:	15. 06. 2019 20:41

#	Program:	/corina/corina34_cracker 3.40 0067  02.08.2006

@<TRIPOS>MOLECULE
ASD03430881
  38   42    0    0    0
SMALL
NO_CHARGES


@<TRIPOS>ATOM
   1 C1            -0.0184     1.5033     0.0103 C.2     
   2 C2             0.0021    -0.0041     0.0020 C.3     
   3 O3             1.1534    -0.4647    -0.7104 O.3     
   4 C4             2.3375     0.1351    -0.4131 C.ar    
   5 C5             3.5231    -0.5757    -0.4655 C.ar    
   6 C6             4.7166     0.0474    -0.1608 C.ar    
   7 C7             4.7456     1.3930     0.1944 C.ar    
   8 C8             3.5504     2.1045     0.2532 C.ar    
   9 C9             2.3538     1.4811    -0.0492 C.ar    
  10 N10            1.1448     2.1898     0.0029 N.am    
  11 O11            6.0214     1.8156     0.4257 O.3     
  12 C12            6.1391    -0.4406    -0.1078 C.3     
  13 C13            6.8656     0.6721     0.6599 C.3     
  14 N14            6.8474    -2.6064    -0.2919 N.am    
  15 C15            6.2623    -1.7669     0.5857 C.2     
  16 C16            6.7228    -0.6510    -1.4737 C.ar    
  17 C17            6.8992     0.1648    -2.5691 C.ar    
  18 C18            7.4871    -0.3342    -3.7176 C.ar    
  19 C19            7.8972    -1.6543    -3.7633 C.ar    
  20 C20            7.7213    -2.4760    -2.6694 C.ar    
  21 C21            7.1300    -1.9822    -1.5093 C.ar    
  22 O22            5.9057    -2.0309     1.7145 O.2     
  23 O23           -1.0757     2.0975     0.0185 O.2     
  24 C24            1.1434     3.6541     0.0486 C.3     
  25 H25            0.0385    -0.3722     1.0273 H       
  26 H26           -0.8991    -0.3766    -0.4850 H       
  27 H27            3.5150    -1.6189    -0.7448 H       
  28 H28            3.5578     3.1467     0.5364 H       
  29 H29            7.8626     0.8369     0.2513 H       
  30 H30            6.9157     0.4394     1.7236 H       
  31 H31            7.0487    -3.5357    -0.1003 H       
  32 H32            6.5778     1.1952    -2.5317 H       
  33 H33            7.6253     0.3055    -4.5767 H       
  34 H34            8.3569    -2.0436    -4.6596 H       
  35 H35            8.0436    -3.5059    -2.7127 H       
  36 H36            0.1157     4.0155     0.0854 H       
  37 H37            1.6788     3.9904     0.9365 H       
  38 H38            1.6347     4.0459    -0.8420 H       
@<TRIPOS>BOND
   1    1    2 1
   2    1   10 am
   3    1   23 2
   4    2    3 1
   5    2   25 1
   6    2   26 1
   7    3    4 1
   8    4    5 ar
   9    4    9 ar
  10    5    6 ar
  11    5   27 1
  12    6    7 ar
  13    6   12 1
  14    7    8 ar
  15    7   11 1
  16    8    9 ar
  17    8   28 1
  18    9   10 1
  19   10   24 1
  20   11   13 1
  21   12   13 1
  22   12   15 1
  23   12   16 1
  24   13   29 1
  25   13   30 1
  26   14   15 am
  27   14   21 1
  28   14   31 1
  29   15   22 2
  30   16   17 ar
  31   16   21 ar
  32   17   18 ar
  33   17   32 1
  34   18   19 ar
  35   18   33 1
  36   19   20 ar
  37   19   34 1
  38   20   21 ar
  39   20   35 1
  40   24   36 1
  41   24   37 1
  42   24   38 1

#	End of record

