#	Name: ASD04910422
#	Creating user name:	WinNT
#	Creation time:	15. 06. 2019 20:55

#	Modifying user name:	WinNT
#	Modification time:	15. 06. 2019 20:55

#	Program:	/corina/corina34_cracker 3.40 0067  02.08.2006

@<TRIPOS>MOLECULE
ASD04910422
  61   64    0    0    0
SMALL
NO_CHARGES


@<TRIPOS>ATOM
   1 C1             0.4718     1.2444     0.3073 C.2     
   2 C2             0.3910    -0.2271     0.2056 C.ar    
   3 C3             1.5543    -0.9847     0.0565 C.ar    
   4 C4             1.4716    -2.3585    -0.0374 C.ar    
   5 C5             0.2394    -2.9858     0.0154 C.ar    
   6 C6            -0.9174    -2.2411     0.1626 C.ar    
   7 C7            -0.8487    -0.8671     0.2640 C.ar    
   8 O8             1.5521     1.7980     0.2613 O.2     
   9 O9            -0.6529     1.9728     0.4456 O.3     
  10 C10            0.1570    -4.4870    -0.0883 C.3     
  11 N11           -0.8520    -4.9865     0.8490 N.pl3   
  12 C12            0.7560    -4.9045     2.6539 C.ar    
  13 C13           -0.5058    -5.2380     2.1804 C.ar    
  14 C14           -1.4230    -5.8261     3.0491 C.ar    
  15 C15           -1.0369    -6.0557     4.3578 C.ar    
  16 C16            0.2430    -5.6951     4.7597 C.ar    
  17 N17            1.0885    -5.1385     3.9080 N.ar    
  18 N18            0.6427    -5.9234     6.0814 N.pl3   
  19 N19           -0.1371    -6.5014     7.0915 N.2     
  20 C20            0.5786    -6.5479     8.1859 C.2     
  21 C21            1.8377    -6.0023     7.9126 C.2     
  22 C22            1.8578    -5.6296     6.6119 C.2     
  23 C23            2.9734    -5.8598     8.8928 C.3     
  24 F24            2.5803    -6.3614    10.1382 F       
  25 F25            4.0818    -6.5771     8.4300 F       
  26 F26            3.3126    -4.5085     9.0204 F       
  27 C27           -0.2336    -4.8789    -1.5147 C.3     
  28 C28           -0.4496    -6.3900    -1.7011 C.3     
  29 C29           -1.6481    -6.0288    -2.5945 C.3     
  30 C30           -1.7327    -4.7077    -1.8120 C.3     
  31 C31           -1.2807    -5.8458    -4.0684 C.3     
  32 C32           -2.8604    -6.9400    -2.3915 C.3     
  33 C33           -0.4979     3.4135     0.5394 C.3     
  34 C34           -1.8737     4.0656     0.6910 C.3     
  35 H35            2.5166    -0.4963     0.0144 H       
  36 H36            2.3706    -2.9457    -0.1528 H       
  37 H37           -1.8760    -2.7370     0.2024 H       
  38 H38           -1.7520    -0.2873     0.3837 H       
  39 H39            1.1263    -4.9218     0.1554 H       
  40 H40           -1.7601    -5.1429     0.5462 H       
  41 H41            1.4746    -4.4525     1.9863 H       
  42 H42           -2.4120    -6.0959     2.7090 H       
  43 H43           -1.7223    -6.5095     5.0584 H       
  44 H44            0.2530    -6.9406     9.1378 H       
  45 H45            2.6889    -5.1778     6.0908 H       
  46 H46            0.4160    -4.4344    -2.2688 H       
  47 H47            0.3609    -6.8842    -2.2367 H       
  48 H48           -0.7293    -6.9076    -0.7835 H       
  49 H49           -2.3632    -4.7653    -0.9247 H       
  50 H50           -1.9579    -3.8436    -2.4372 H       
  51 H51           -0.8548    -6.7719    -4.4543 H       
  52 H52           -2.1755    -5.5927    -4.6371 H       
  53 H53           -0.5502    -5.0425    -4.1637 H       
  54 H54           -3.1950    -6.8744    -1.3562 H       
  55 H55           -3.6664    -6.6254    -3.0545 H       
  56 H56           -2.5834    -7.9693    -2.6194 H       
  57 H57            0.1171     3.6571     1.4058 H       
  58 H58           -0.0165     3.7868    -0.3644 H       
  59 H59           -2.4887     3.8221    -0.1753 H       
  60 H60           -2.3551     3.6924     1.5949 H       
  61 H61           -1.7573     5.1471     0.7615 H       
@<TRIPOS>BOND
   1    1    2 1
   2    1    8 2
   3    1    9 1
   4    2    3 ar
   5    2    7 ar
   6    3    4 ar
   7    3   35 1
   8    4    5 ar
   9    4   36 1
  10    5    6 ar
  11    5   10 1
  12    6    7 ar
  13    6   37 1
  14    7   38 1
  15    9   33 1
  16   10   11 1
  17   10   27 1
  18   10   39 1
  19   11   13 1
  20   11   40 1
  21   12   13 ar
  22   12   17 ar
  23   12   41 1
  24   13   14 ar
  25   14   15 ar
  26   14   42 1
  27   15   16 ar
  28   15   43 1
  29   16   17 ar
  30   16   18 1
  31   18   19 1
  32   18   22 1
  33   19   20 2
  34   20   21 1
  35   20   44 1
  36   21   22 2
  37   21   23 1
  38   22   45 1
  39   23   24 1
  40   23   25 1
  41   23   26 1
  42   27   28 1
  43   27   30 1
  44   27   46 1
  45   28   29 1
  46   28   47 1
  47   28   48 1
  48   29   30 1
  49   29   31 1
  50   29   32 1
  51   30   49 1
  52   30   50 1
  53   31   51 1
  54   31   52 1
  55   31   53 1
  56   32   54 1
  57   32   55 1
  58   32   56 1
  59   33   34 1
  60   33   57 1
  61   33   58 1
  62   34   59 1
  63   34   60 1
  64   34   61 1

#	End of record

