#	Name: ASD03331727
#	Creating user name:	WinNT
#	Creation time:	15. 06. 2019 20:39

#	Modifying user name:	WinNT
#	Modification time:	15. 06. 2019 20:39

#	Program:	/corina/corina34_cracker 3.40 0067  02.08.2006

@<TRIPOS>MOLECULE
ASD03331727
  57   56    0    0    0
SMALL
NO_CHARGES


@<TRIPOS>ATOM
   1 C1            -0.0171     1.4086     0.0098 C.2     
   2 C2             0.0021    -0.0041     0.0020 C.2     
   3 C3             1.1463     2.1015     0.0024 C.2     
   4 C4             2.4227     1.3875    -0.0136 C.2     
   5 C5             3.5693     2.0705    -0.0209 C.2     
   6 C6            -1.1613    -0.6970     0.0094 C.2     
   7 C7            -1.1415    -2.1595     0.0014 C.2     
   8 C8             4.8844     1.3348    -0.0374 C.3     
   9 C9             5.6696     1.7220    -1.2921 C.3     
  10 C10            6.9470     0.8838    -1.3733 C.3     
  11 C11            7.7323     1.2710    -2.6280 C.3     
  12 C12            9.0096     0.4328    -2.7092 C.3     
  13 C13            9.7949     0.8200    -3.9639 C.3     
  14 C14           -2.2880    -2.8424     0.0086 C.2     
  15 C15           -2.2676    -4.3493     0.0004 C.3     
  16 C16           -3.0767    -4.8768     1.1869 C.3     
  17 C17           -3.0559    -6.4067     1.1785 C.3     
  18 C18           -3.7582    -6.9331     2.4317 C.3     
  19 C19           -3.7375    -8.4630     2.4233 C.3     
  20 C20           -4.4292    -8.9815     3.6577 C.2     
  21 O21           -4.8914    -8.2070     4.4616 O.2     
  22 O22           -4.5319   -10.3039     3.8640 O.3     
  23 O23            5.6401     1.6840     1.1241 O.3     
  24 O24           -0.9180    -4.8079     0.1024 O.3     
  25 O25           -4.4262    -4.4182     1.0849 O.3     
  26 H26           -0.9596     1.9358     0.0171 H       
  27 H27            0.9446    -0.5313    -0.0098 H       
  28 H28            1.1316     3.1814     0.0083 H       
  29 H29            2.4373     0.3077    -0.0196 H       
  30 H30            3.5546     3.1504    -0.0150 H       
  31 H31           -2.1038    -0.1698     0.0212 H       
  32 H32           -0.1989    -2.6867    -0.0105 H       
  33 H33            4.6998     0.2606    -0.0414 H       
  34 H34            5.0575     1.5379    -2.1751 H       
  35 H35            5.9311     2.7792    -1.2453 H       
  36 H36            7.5591     1.0679    -0.4904 H       
  37 H37            6.6855    -0.1733    -1.4201 H       
  38 H38            7.1202     1.0869    -3.5109 H       
  39 H39            7.9938     2.3282    -2.5812 H       
  40 H40            9.6217     0.6169    -1.8262 H       
  41 H41            8.7481    -0.6243    -2.7560 H       
  42 H42            9.1828     0.6359    -4.8468 H       
  43 H43           10.0564     1.8771    -3.9171 H       
  44 H44           10.7049     0.2228    -4.0217 H       
  45 H45           -3.2305    -2.3152     0.0205 H       
  46 H46           -2.7058    -4.7135    -0.9289 H       
  47 H47           -2.6384    -4.5126     2.1161 H       
  48 H48           -3.5732    -6.7722     0.2915 H       
  49 H49           -2.0235    -6.7560     1.1668 H       
  50 H50           -3.2409    -6.5676     3.3188 H       
  51 H51           -4.7907    -6.5838     2.4435 H       
  52 H52           -4.2548    -8.8285     1.5362 H       
  53 H53           -2.7050    -8.8123     2.4116 H       
  54 H54           -4.9841   -10.5887     4.6699 H       
  55 H55            5.8416     2.6272     1.1934 H       
  56 H56           -0.4649    -4.5208     0.9070 H       
  57 H57           -4.8794    -4.7053     0.2803 H       
@<TRIPOS>BOND
   1    1    2 1
   2    1    3 2
   3    1   26 1
   4    2    6 2
   5    2   27 1
   6    3    4 1
   7    3   28 1
   8    4    5 2
   9    4   29 1
  10    5    8 1
  11    5   30 1
  12    6    7 1
  13    6   31 1
  14    7   14 2
  15    7   32 1
  16    8    9 1
  17    8   23 1
  18    8   33 1
  19    9   10 1
  20    9   34 1
  21    9   35 1
  22   10   11 1
  23   10   36 1
  24   10   37 1
  25   11   12 1
  26   11   38 1
  27   11   39 1
  28   12   13 1
  29   12   40 1
  30   12   41 1
  31   13   42 1
  32   13   43 1
  33   13   44 1
  34   14   15 1
  35   14   45 1
  36   15   16 1
  37   15   24 1
  38   15   46 1
  39   16   17 1
  40   16   25 1
  41   16   47 1
  42   17   18 1
  43   17   48 1
  44   17   49 1
  45   18   19 1
  46   18   50 1
  47   18   51 1
  48   19   20 1
  49   19   52 1
  50   19   53 1
  51   20   21 2
  52   20   22 1
  53   22   54 1
  54   23   55 1
  55   24   56 1
  56   25   57 1

#	End of record

