#	Name: ASD02560109
#	Creating user name:	WinNT
#	Creation time:	15. 06. 2019 20:24

#	Modifying user name:	WinNT
#	Modification time:	15. 06. 2019 20:24

#	Program:	/corina/corina34_cracker 3.40 0067  02.08.2006

@<TRIPOS>MOLECULE
ASD02560109
  57   61    0    0    0
SMALL
NO_CHARGES


@<TRIPOS>ATOM
   1 N1            -0.1727     1.0168     0.0805 N.2     
   2 N2            -0.0681    -0.2136     0.0671 N.2     
   3 C3             1.1348     1.6630    -0.0924 C.3     
   4 N4             2.1256     0.5913     0.1800 N.3     
   5 C5             1.3292    -0.6261    -0.1173 C.3     
   6 S6             1.7532    -1.9566     1.0405 S.3     
   7 C7             1.3366    -1.2411     2.6546 C.3     
   8 C8             1.6373    -2.2419     3.7404 C.2     
   9 O9             2.0883    -3.3306     3.4537 O.2     
  10 N10            1.4051    -1.9271     5.0302 N.am    
  11 C11            3.2197     0.6936    -0.6764 C.ar    
  12 C12            1.5910    -2.8853     6.0262 C.ar    
  13 C13            0.7554    -2.9006     7.1402 C.ar    
  14 C14            0.9366    -3.8457     8.1255 C.ar    
  15 C15            1.9608    -4.7901     8.0058 C.ar    
  16 C16            2.7972    -4.7712     6.8861 C.ar    
  17 C17            2.6070    -3.8271     5.9020 C.ar    
  18 Cl18          -0.5153    -1.7270     7.2873 Cl      
  19 C19            2.1584    -5.8034     9.0588 C.2     
  20 O20            1.4308    -5.8183    10.0318 O.2     
  21 O21            3.1460    -6.7127     8.9419 O.3     
  22 C22            4.1776     1.7132    -0.4893 C.ar    
  23 C23            3.3799    -0.2039    -1.7108 C.ar    
  24 C24            4.4694    -0.1107    -2.5713 C.ar    
  25 C25            5.4058     0.8659    -2.4168 C.ar    
  26 C26            5.2823     1.7976    -1.3722 C.ar    
  27 C27            6.2335     2.8164    -1.1891 C.ar    
  28 C28            6.0830     3.7025    -0.1671 C.ar    
  29 C29            4.9982     3.6160     0.7032 C.ar    
  30 C30            4.0559     2.6445     0.5537 C.ar    
  31 C31            6.5765     0.9441    -3.3624 C.3     
  32 C32            7.5098    -0.2662    -3.4329 C.3     
  33 C33            6.5549     0.0319    -4.5906 C.3     
  34 C34            1.2886     2.1796    -1.5243 C.3     
  35 F35            0.2011     2.9996    -1.8436 F       
  36 F36            2.4740     2.9149    -1.6299 F       
  37 H37            1.2523     2.4788     0.6210 H       
  38 H38            1.4974    -0.9482    -1.1450 H       
  39 H39            1.9287    -0.3404     2.8165 H       
  40 H40            0.2766    -0.9881     2.6771 H       
  41 H41            1.1087    -1.0340     5.2656 H       
  42 H42            0.2887    -3.8572     8.9895 H       
  43 H43            3.5895    -5.4990     6.7909 H       
  44 H44            3.2531    -3.8123     5.0368 H       
  45 H45            3.2364    -7.3569     9.6574 H       
  46 H46            2.6516    -0.9883    -1.8547 H       
  47 H47            4.5742    -0.8248    -3.3747 H       
  48 H48            7.0794     2.8953    -1.8558 H       
  49 H49            6.8153     4.4841    -0.0285 H       
  50 H50            4.9019     4.3316     1.5064 H       
  51 H51            3.2204     2.5894     1.2357 H       
  52 H52            7.0235     1.9317    -3.4765 H       
  53 H53            8.5708    -0.0749    -3.5937 H       
  54 H54            7.2771    -1.1190    -2.7954 H       
  55 H55            5.6938    -0.6248    -4.7146 H       
  56 H56            6.9876     0.4193    -5.5129 H       
  57 H57            1.3219     1.3356    -2.2133 H       
@<TRIPOS>BOND
   1    1    2 2
   2    1    3 1
   3    2    5 1
   4    3    4 1
   5    3   34 1
   6    3   37 1
   7    4    5 1
   8    4   11 1
   9    5    6 1
  10    5   38 1
  11    6    7 1
  12    7    8 1
  13    7   39 1
  14    7   40 1
  15    8    9 2
  16    8   10 am
  17   10   12 1
  18   10   41 1
  19   11   22 ar
  20   11   23 ar
  21   12   13 ar
  22   12   17 ar
  23   13   14 ar
  24   13   18 1
  25   14   15 ar
  26   14   42 1
  27   15   16 ar
  28   15   19 1
  29   16   17 ar
  30   16   43 1
  31   17   44 1
  32   19   20 2
  33   19   21 1
  34   21   45 1
  35   22   26 ar
  36   22   30 ar
  37   23   24 ar
  38   23   46 1
  39   24   25 ar
  40   24   47 1
  41   25   26 ar
  42   25   31 1
  43   26   27 ar
  44   27   28 ar
  45   27   48 1
  46   28   29 ar
  47   28   49 1
  48   29   30 ar
  49   29   50 1
  50   30   51 1
  51   31   32 1
  52   31   33 1
  53   31   52 1
  54   32   33 1
  55   32   53 1
  56   32   54 1
  57   33   55 1
  58   33   56 1
  59   34   35 1
  60   34   36 1
  61   34   57 1

#	End of record

