#	Name: ASD03331489
#	Creating user name:	WinNT
#	Creation time:	15. 06. 2019 20:39

#	Modifying user name:	WinNT
#	Modification time:	15. 06. 2019 20:39

#	Program:	/corina/corina34_cracker 3.40 0067  02.08.2006

@<TRIPOS>MOLECULE
ASD03331489
  73   77    0    0    0
SMALL
NO_CHARGES


@<TRIPOS>ATOM
   1 C1             0.3593     2.2567    -2.0166 C.ar    
   2 C2             0.4490     0.9001    -2.2492 C.ar    
   3 C3             1.2208     0.1018    -1.4216 C.ar    
   4 C4             1.9069     0.6590    -0.3562 C.ar    
   5 C5             1.8250     2.0158    -0.1129 C.ar    
   6 C6             1.0483     2.8252    -0.9444 C.ar    
   7 C7             0.9565     4.2791    -0.6900 C.2     
   8 Cl8            2.6854     2.7135     1.2238 Cl      
   9 C9             2.0048     5.1150    -0.4779 C.2     
  10 N10           -0.2049     5.0134    -0.6344 N.pl3   
  11 C11            0.1012     6.3098    -0.3823 C.2     
  12 C12           -1.4983     4.5031    -0.8106 C.ar    
  13 C13           -2.0470     3.6550     0.1419 C.ar    
  14 C14           -3.3217     3.1534    -0.0341 C.ar    
  15 C15           -4.0518     3.4953    -1.1589 C.ar    
  16 C16           -3.5070     4.3401    -2.1099 C.ar    
  17 C17           -2.2352     4.8495    -1.9352 C.ar    
  18 C18            1.4717     6.4149    -0.2775 C.2     
  19 C19            2.2380     7.6444    -0.0119 C.2     
  20 N20            3.3047     7.9520    -0.7761 N.am    
  21 C21            3.6476     7.1335    -1.9471 C.3     
  22 C22            3.7593     8.0471    -3.1717 C.3     
  23 C23            4.7562     9.1701    -2.8760 C.3     
  24 C24            4.2526    10.0039    -1.6957 C.3     
  25 C25            4.1432     9.1157    -0.4576 C.3     
  26 C26            6.0972     8.5738    -2.5337 C.2     
  27 O27            1.9081     8.3822     0.8971 O.2     
  28 N28            6.4960     7.4293    -3.1231 N.am    
  29 O29            6.8174     9.1238    -1.7277 O.2     
  30 Cl30           1.3279    -1.6049    -1.7210 Cl      
  31 Cl31          -5.6536     2.8627    -1.3775 Cl      
  32 C32           -0.8854     7.4406    -0.2447 C.3     
  33 C33           -1.3123     7.5697     1.2188 C.3     
  34 C34           -2.3140     8.7178     1.3585 C.3     
  35 O35           -2.7127     8.8384     2.7254 O.3     
  36 N36            4.8908    10.0292    -4.0600 N.3     
  37 C37            5.8657    11.1092    -3.8211 C.3     
  38 C38            6.2218    10.2218    -6.0466 C.3     
  39 C39            5.3326     9.2474    -5.2345 C.3     
  40 F40            7.3322    12.2698    -5.3598 F       
  41 C41            6.9467    11.0000    -4.9170 C.3     
  42 F42            8.0523    10.2802    -4.4513 F       
  43 H43           -0.2394     2.8784    -2.6656 H       
  44 H44           -0.0842     0.4593    -3.0786 H       
  45 H45            2.5069     0.0314     0.2861 H       
  46 H46            3.0496     4.8418    -0.4639 H       
  47 H47           -1.4773     3.3873     1.0195 H       
  48 H48           -3.7489     2.4936     0.7066 H       
  49 H49           -4.0786     4.6051    -2.9871 H       
  50 H50           -1.8105     5.5091    -2.6775 H       
  51 H51            4.6007     6.6328    -1.7765 H       
  52 H52            2.8674     6.3910    -2.1151 H       
  53 H53            4.1069     7.4680    -4.0272 H       
  54 H54            2.7829     8.4769    -3.3952 H       
  55 H55            4.9512    10.8175    -1.5006 H       
  56 H56            3.2715    10.4152    -1.9331 H       
  57 H57            3.6921     9.6802     0.3584 H       
  58 H58            5.1358     8.7746    -0.1637 H       
  59 H59            5.9563     7.0309    -3.8238 H       
  60 H60            7.3228     7.0039    -2.8467 H       
  61 H61           -0.4198     8.3706    -0.5707 H       
  62 H62           -1.7604     7.2365    -0.8618 H       
  63 H63           -1.7779     6.6396     1.5449 H       
  64 H64           -0.4373     7.7738     1.8359 H       
  65 H65           -1.8484     9.6478     1.0325 H       
  66 H66           -3.1890     8.5137     0.7414 H       
  67 H67           -3.3487     9.5483     2.8884 H       
  68 H68            5.3695    12.0776    -3.8849 H       
  69 H69            6.3207    10.9873    -2.8381 H       
  70 H70            6.9349     9.6766    -6.6649 H       
  71 H71            5.6131    10.8919    -6.6538 H       
  72 H72            5.9118     8.3803    -4.9170 H       
  73 H73            4.4731     8.9344    -5.8272 H       
@<TRIPOS>BOND
   1    1    2 ar
   2    1    6 ar
   3    1   43 1
   4    2    3 ar
   5    2   44 1
   6    3    4 ar
   7    3   30 1
   8    4    5 ar
   9    4   45 1
  10    5    6 ar
  11    5    8 1
  12    6    7 1
  13    7   10 1
  14    7    9 2
  15    9   18 1
  16    9   46 1
  17   10   11 1
  18   10   12 1
  19   11   18 2
  20   11   32 1
  21   12   13 ar
  22   12   17 ar
  23   13   14 ar
  24   13   47 1
  25   14   15 ar
  26   14   48 1
  27   15   16 ar
  28   15   31 1
  29   16   17 ar
  30   16   49 1
  31   17   50 1
  32   18   19 1
  33   19   20 am
  34   19   27 2
  35   20   21 1
  36   20   25 1
  37   21   22 1
  38   21   51 1
  39   21   52 1
  40   22   23 1
  41   22   53 1
  42   22   54 1
  43   23   24 1
  44   23   26 1
  45   23   36 1
  46   24   25 1
  47   24   55 1
  48   24   56 1
  49   25   57 1
  50   25   58 1
  51   26   28 am
  52   26   29 2
  53   28   59 1
  54   28   60 1
  55   32   33 1
  56   32   61 1
  57   32   62 1
  58   33   34 1
  59   33   63 1
  60   33   64 1
  61   34   35 1
  62   34   65 1
  63   34   66 1
  64   35   67 1
  65   36   37 1
  66   36   39 1
  67   37   41 1
  68   37   68 1
  69   37   69 1
  70   38   39 1
  71   38   41 1
  72   38   70 1
  73   38   71 1
  74   39   72 1
  75   39   73 1
  76   40   41 1
  77   41   42 1

#	End of record

