#	Name: ASD03330342
#	Creating user name:	WinNT
#	Creation time:	15. 06. 2019 20:37

#	Modifying user name:	WinNT
#	Modification time:	15. 06. 2019 20:37

#	Program:	/corina/corina34_cracker 3.40 0067  02.08.2006

@<TRIPOS>MOLECULE
ASD03330342
  59   62    0    0    0
SMALL
NO_CHARGES


@<TRIPOS>ATOM
   1 C1            -0.0369     1.4662     0.0010 C.3     
   2 N2             0.0013    -0.0040     0.0017 N.am    
   3 C3             0.5922    -0.6831    -1.1674 C.3     
   4 C4             1.8464     0.0747    -1.5275 C.2     
   5 N5             2.1855     1.2834    -0.9982 N.pl3   
   6 C6             1.3958     2.0109    -0.0020 C.3     
   7 C7             2.8265    -0.2756    -2.3980 C.2     
   8 N8             3.7467     0.7153    -2.3996 N.2     
   9 C9             3.3680     1.6548    -1.5637 C.2     
  10 C10            4.1025     2.9080    -1.2836 C.ar    
  11 C11            5.1249     3.3260    -2.1362 C.ar    
  12 C12            2.8792    -1.5129    -3.1967 C.2     
  13 O13            1.9858    -2.3333    -3.1067 O.2     
  14 C14            3.9696    -2.9654    -4.8210 C.3     
  15 N15            3.9173    -1.7354    -4.0270 N.am    
  16 C16           -0.4887    -0.7102     1.0397 C.2     
  17 O17           -0.8725    -0.1347     2.0392 O.2     
  18 C18            5.8065     4.4953    -1.8700 C.ar    
  19 C19            5.4777     5.2540    -0.7592 C.ar    
  20 C20            4.4640     4.8441     0.0904 C.ar    
  21 C21            3.7718     3.6794    -0.1690 C.ar    
  22 C22           -0.5595    -2.1850     0.9628 C.ar    
  23 C23            6.6244    -4.3169    -7.2573 C.3     
  24 C24            5.2956    -4.2539    -6.5014 C.3     
  25 C25            5.2410    -2.9693    -5.6721 C.3     
  26 C26            4.1385    -4.2644    -7.5023 C.3     
  27 C27           -0.3457    -2.9575     2.1054 C.ar    
  28 C28           -0.8461    -2.8106    -0.2516 C.ar    
  29 C29           -0.9111    -4.1871    -0.3164 C.ar    
  30 C30           -0.6934    -4.9472     0.8190 C.ar    
  31 C31           -0.4136    -4.3332     2.0269 C.ar    
  32 Cl32           6.3401     6.7242    -0.4302 Cl      
  33 H33           -0.5610     1.8161    -0.8884 H       
  34 H34           -0.5575     1.8169     0.8921 H       
  35 H35            0.8401    -1.7136    -0.9132 H       
  36 H36           -0.1077    -0.6627    -2.0027 H       
  37 H37            1.3816     3.0717    -0.2526 H       
  38 H38            1.8393     1.8748     0.9843 H       
  39 H39            5.3824     2.7349    -3.0026 H       
  40 H40            3.9757    -3.8280    -4.1547 H       
  41 H41            3.0966    -3.0152    -5.4718 H       
  42 H42            4.6297    -1.0811    -4.0988 H       
  43 H43            6.5982     4.8196    -2.5290 H       
  44 H44            4.2118     5.4397     0.9553 H       
  45 H45            2.9813     3.3607     0.4943 H       
  46 H46            7.4488    -4.3094    -6.5442 H       
  47 H47            6.6633    -5.2320    -7.8481 H       
  48 H48            6.7077    -3.4540    -7.9181 H       
  49 H49            5.2123    -5.1168    -5.8406 H       
  50 H50            5.2348    -2.1067    -6.3384 H       
  51 H51            6.1140    -2.9195    -5.0214 H       
  52 H52            3.1919    -4.2196    -6.9638 H       
  53 H53            4.2218    -3.4016    -8.1631 H       
  54 H54            4.1774    -5.1796    -8.0931 H       
  55 H55           -0.1272    -2.4795     3.0489 H       
  56 H56           -1.0169    -2.2183    -1.1384 H       
  57 H57           -1.1327    -4.6724    -1.2554 H       
  58 H58           -0.7461    -6.0245     0.7630 H       
  59 H59           -0.2447    -4.9323     2.9095 H       
@<TRIPOS>BOND
   1    1    2 1
   2    1    6 1
   3    1   33 1
   4    1   34 1
   5    2    3 1
   6    2   16 am
   7    3    4 1
   8    3   35 1
   9    3   36 1
  10    4    5 1
  11    4    7 2
  12    5    6 1
  13    5    9 1
  14    6   37 1
  15    6   38 1
  16    7    8 1
  17    7   12 1
  18    8    9 2
  19    9   10 1
  20   10   11 ar
  21   10   21 ar
  22   11   18 ar
  23   11   39 1
  24   12   13 2
  25   12   15 am
  26   14   15 1
  27   14   25 1
  28   14   40 1
  29   14   41 1
  30   15   42 1
  31   16   17 2
  32   16   22 1
  33   18   19 ar
  34   18   43 1
  35   19   20 ar
  36   19   32 1
  37   20   21 ar
  38   20   44 1
  39   21   45 1
  40   22   27 ar
  41   22   28 ar
  42   23   24 1
  43   23   46 1
  44   23   47 1
  45   23   48 1
  46   24   25 1
  47   24   26 1
  48   24   49 1
  49   25   50 1
  50   25   51 1
  51   26   52 1
  52   26   53 1
  53   26   54 1
  54   27   31 ar
  55   27   55 1
  56   28   29 ar
  57   28   56 1
  58   29   30 ar
  59   29   57 1
  60   30   31 ar
  61   30   58 1
  62   31   59 1

#	End of record

