#	Name: ASD01911821
#	Creating user name:	WinNT
#	Creation time:	15. 06. 2019 19:58

#	Modifying user name:	WinNT
#	Modification time:	15. 06. 2019 19:58

#	Program:	/corina/corina34_cracker 3.40 0067  02.08.2006

@<TRIPOS>MOLECULE
ASD01911821
  63   66    0    0    0
SMALL
NO_CHARGES


@<TRIPOS>ATOM
   1 C1            -0.0166     1.3750     0.0096 C.ar    
   2 C2             0.0021    -0.0041     0.0020 C.ar    
   3 C3             1.2190    -0.6830    -0.0133 C.ar    
   4 C4             2.4138     0.0342    -0.0209 C.ar    
   5 C5             2.3889     1.4132    -0.0133 C.ar    
   6 C6             1.1752     2.0867     0.0020 C.ar    
   7 C7             1.2424    -2.1668    -0.0210 C.2     
   8 N8             0.1905    -2.9580    -0.0152 N.2     
   9 C9             2.3942    -2.9773    -0.0420 C.2     
  10 C10            1.9928    -4.2672    -0.0424 C.2     
  11 N11            0.6427    -4.2836    -0.0261 N.pl3   
  12 C12            2.8934    -5.4753    -0.0617 C.3     
  13 C13            4.1336    -5.1736    -0.9055 C.3     
  14 C14            3.3197    -5.8165     1.3675 C.3     
  15 C15           -0.2025    -5.4803    -0.0197 C.3     
  16 C16           -0.4749    -5.8952     1.4032 C.2     
  17 N17           -1.2363    -6.9784     1.6553 N.am    
  18 O18           -0.0091    -5.2545     2.3216 O.2     
  19 C19           -1.5146    -7.4007     3.0364 C.3     
  20 C20           -1.8160    -7.7658     0.5566 C.3     
  21 C21           -3.3169    -7.9333     0.8169 C.3     
  22 N22           -3.5181    -8.4968     2.1585 N.3     
  23 C23           -3.0279    -7.5833     3.1940 C.3     
  24 C24           -4.8546    -8.8150     2.3698 C.ar    
  25 N25           -5.7413    -8.5936     1.4116 N.ar    
  26 C26           -5.2477    -9.3683     3.5839 C.ar    
  27 C27           -6.5811    -9.6801     3.7809 C.ar    
  28 C28           -7.4795    -9.4270     2.7531 C.ar    
  29 C29           -7.0191    -8.8811     1.5715 C.ar    
  30 O30            1.1537     3.4454     0.0100 O.3     
  31 C31           -0.1295     4.0739     0.0257 C.3     
  32 C32           -7.0478   -10.2814     5.0815 C.3     
  33 H33           -0.9595     1.9017     0.0169 H       
  34 H34           -0.9255    -0.5573     0.0083 H       
  35 H35            3.3583    -0.4894    -0.0324 H       
  36 H36            3.3146     1.9694    -0.0191 H       
  37 H37            3.4165    -2.6294    -0.0553 H       
  38 H38            2.3577    -6.3211    -0.4928 H       
  39 H39            4.6693    -4.3279    -0.4744 H       
  40 H40            4.7850    -6.0474    -0.9194 H       
  41 H41            3.8299    -4.9305    -1.9237 H       
  42 H42            2.4362    -6.0315     1.9687 H       
  43 H43            3.9711    -6.6904     1.3536 H       
  44 H44            3.8555    -4.9708     1.7986 H       
  45 H45           -1.1452    -5.2620    -0.5213 H       
  46 H46            0.3086    -6.2888    -0.5424 H       
  47 H47           -1.0088    -8.3446     3.2396 H       
  48 H48           -1.1637    -6.6371     3.7305 H       
  49 H49           -1.6643    -7.2435    -0.3880 H       
  50 H50           -1.3397    -8.7455     0.5172 H       
  51 H51           -3.8077    -6.9622     0.7529 H       
  52 H52           -3.7423    -8.6060     0.0722 H       
  53 H53           -3.2390    -8.0020     4.1780 H       
  54 H54           -3.5264    -6.6191     3.0940 H       
  55 H55           -4.5219    -9.5523     4.3622 H       
  56 H56           -8.5272    -9.6593     2.8749 H       
  57 H57           -7.7145    -8.6826     0.7694 H       
  58 H58           -0.6902     3.7773    -0.8607 H       
  59 H59           -0.6734     3.7672     0.9191 H       
  60 H60           -0.0038     5.1566     0.0307 H       
  61 H61           -7.3250    -9.4843     5.7715 H       
  62 H62           -7.9120   -10.9195     4.8974 H       
  63 H63           -6.2438   -10.8751     5.5165 H       
@<TRIPOS>BOND
   1    1    2 ar
   2    1    6 ar
   3    1   33 1
   4    2    3 ar
   5    2   34 1
   6    3    4 ar
   7    3    7 1
   8    4    5 ar
   9    4   35 1
  10    5    6 ar
  11    5   36 1
  12    6   30 1
  13    7    8 2
  14    7    9 1
  15    8   11 1
  16    9   10 2
  17    9   37 1
  18   10   11 1
  19   10   12 1
  20   11   15 1
  21   12   13 1
  22   12   14 1
  23   12   38 1
  24   13   39 1
  25   13   40 1
  26   13   41 1
  27   14   42 1
  28   14   43 1
  29   14   44 1
  30   15   16 1
  31   15   45 1
  32   15   46 1
  33   16   17 am
  34   16   18 2
  35   17   19 1
  36   17   20 1
  37   19   23 1
  38   19   47 1
  39   19   48 1
  40   20   21 1
  41   20   49 1
  42   20   50 1
  43   21   22 1
  44   21   51 1
  45   21   52 1
  46   22   23 1
  47   22   24 1
  48   23   53 1
  49   23   54 1
  50   24   25 ar
  51   24   26 ar
  52   25   29 ar
  53   26   27 ar
  54   26   55 1
  55   27   28 ar
  56   27   32 1
  57   28   29 ar
  58   28   56 1
  59   29   57 1
  60   30   31 1
  61   31   58 1
  62   31   59 1
  63   31   60 1
  64   32   61 1
  65   32   62 1
  66   32   63 1

#	End of record

