#	Name: ASD02230005
#	Creating user name:	WinNT
#	Creation time:	15. 06. 2019 20:20

#	Modifying user name:	WinNT
#	Modification time:	15. 06. 2019 20:20

#	Program:	/corina/corina34_cracker 3.40 0067  02.08.2006

@<TRIPOS>MOLECULE
ASD02230005
  17   16    0    0    0
SMALL
NO_CHARGES


@<TRIPOS>ATOM
   1 S1            -0.0225     1.8097     0.0120 S.3     
   2 O2            -3.4054    -2.6337     1.3458 O.3     
   3 O3            -3.4209    -2.9612    -0.8396 O.2     
   4 N4            -0.8327    -2.5384    -1.2589 N.3     
   5 C5            -1.4126    -2.0635     0.0045 C.3     
   6 C6            -1.4333    -0.5336     0.0129 C.3     
   7 C7             0.0021    -0.0041     0.0020 C.3     
   8 C8            -2.8198    -2.5857     0.1389 C.2     
   9 H9            -0.8102    -2.4233     0.8386 H       
  10 H10           -1.9605    -0.1726    -0.8702 H       
  11 H11           -1.9435    -0.1821     0.9097 H       
  12 H12            0.5123    -0.3556    -0.8948 H       
  13 H13            0.5293    -0.3651     0.8851 H       
  14 H14           -0.7484    -3.5439    -1.2627 H       
  15 H15           -1.3735    -2.2178    -2.0481 H       
  16 H16            1.2837     2.1301     0.0012 H       
  17 H17           -4.3089    -2.9763     1.3820 H       
@<TRIPOS>BOND
   1    1    7 1
   2    1   16 1
   3    2    8 1
   4    2   17 1
   5    3    8 2
   6    4   14 1
   7    4   15 1
   8    4    5 1
   9    5    6 1
  10    5    8 1
  11    5    9 1
  12    6    7 1
  13    6   10 1
  14    6   11 1
  15    7   12 1
  16    7   13 1

#	End of record

