#	Name: ASD04591136
#	Creating user name:	WinNT
#	Creation time:	15. 06. 2019 20:52

#	Modifying user name:	WinNT
#	Modification time:	15. 06. 2019 20:52

#	Program:	/corina/corina34_cracker 3.40 0067  02.08.2006

@<TRIPOS>MOLECULE
ASD04591136
  63   68    0    0    0
SMALL
NO_CHARGES


@<TRIPOS>ATOM
   1 N1            -0.0223     1.3339    -0.0846 N.ar    
   2 C2             0.0004     0.0074    -0.0639 C.ar    
   3 N3             1.1303    -0.6809    -0.0791 N.ar    
   4 C4             2.3033    -0.0558    -0.1167 C.ar    
   5 C5             2.3130     1.3535    -0.1399 C.ar    
   6 C6             1.0996     2.0338    -0.1222 C.ar    
   7 N7             3.6025    -0.4990    -0.1398 N.pl3   
   8 C8             4.4783     0.5723    -0.1777 C.ar    
   9 C9             3.7238     1.7591    -0.1795 C.ar    
  10 C10            5.8634     0.6683    -0.2117 C.ar    
  11 N11            6.4530     1.8460    -0.2447 N.ar    
  12 C12            5.7735     2.9792    -0.2473 C.ar    
  13 C13            4.3952     2.9807    -0.2147 C.ar    
  14 N14           -1.2009    -0.6809    -0.0246 N.pl3   
  15 C15           -2.4011     0.0177     0.1050 C.ar    
  16 C16            4.0053    -1.9074    -0.1258 C.3     
  17 N17           -2.3786     1.3276     0.2906 N.ar    
  18 C18           -3.4890     2.0291     0.4184 C.ar    
  19 C19           -4.7288     1.4105     0.3622 C.ar    
  20 C20           -4.7921     0.0315     0.1677 C.ar    
  21 C21           -3.6078    -0.6695     0.0320 C.ar    
  22 N22           -5.9023     2.1615     0.4995 N.pl3   
  23 C23           -5.8255     3.5866     0.8299 C.3     
  24 C24            3.4233    -2.6111     1.1176 C.3     
  25 C25            3.4265    -2.6334    -1.3529 C.3     
  26 C26            2.5131    -3.7529    -0.8124 C.3     
  27 C27            2.1184    -3.2698     0.6053 C.3     
  28 C28           -7.2072     1.5221     0.3127 C.3     
  29 C29           -6.5814     4.3972    -0.2253 C.3     
  30 N30           -6.5226     5.8241     0.1168 N.3     
  31 C31           -7.1676     6.0871     1.4096 C.3     
  32 C32           -6.4292     5.3270     2.5136 C.3     
  33 C33           -6.4595     3.8280     2.2026 C.3     
  34 H34            1.0740     3.1134    -0.1395 H       
  35 H35            6.4624    -0.2304    -0.2107 H       
  36 H36            6.3059     3.9185    -0.2747 H       
  37 H37            3.8458     3.9106    -0.2174 H       
  38 H38           -1.2075    -1.6489    -0.0872 H       
  39 H39            5.0925    -1.9846    -0.1247 H       
  40 H40           -3.4315     3.0970     0.5687 H       
  41 H41           -5.7439    -0.4768     0.1199 H       
  42 H42           -3.6197    -1.7387    -0.1203 H       
  43 H43           -4.7817     3.8997     0.8504 H       
  44 H44            4.1146    -3.3695     1.4853 H       
  45 H45            3.2024    -1.8840     1.8990 H       
  46 H46            2.8460    -1.9378    -1.9588 H       
  47 H47            4.2329    -3.0636    -1.9469 H       
  48 H48            1.6279    -3.8591    -1.4394 H       
  49 H49            3.0574    -4.6956    -0.7564 H       
  50 H50            1.8377    -4.1130     1.2365 H       
  51 H51            1.3113    -2.5391     0.5537 H       
  52 H52           -7.5611     1.1331     1.2674 H       
  53 H53           -7.9194     2.2543    -0.0679 H       
  54 H54           -7.1118     0.7033    -0.4005 H       
  55 H55           -6.1236     4.2388    -1.2018 H       
  56 H56           -7.6218     4.0736    -0.2554 H       
  57 H57           -5.5704     6.1578     0.1133 H       
  58 H58           -7.1355     7.1560     1.6206 H       
  59 H59           -8.2052     5.7556     1.3719 H       
  60 H60           -5.3950     5.6679     2.5611 H       
  61 H61           -6.9176     5.5100     3.4707 H       
  62 H62           -7.4920     3.4787     2.1935 H       
  63 H63           -5.8976     3.2866     2.9637 H       
@<TRIPOS>BOND
   1    1    2 ar
   2    1    6 ar
   3    2    3 ar
   4    2   14 1
   5    3    4 ar
   6    4    5 ar
   7    4    7 1
   8    5    6 ar
   9    5    9 1
  10    6   34 1
  11    7    8 1
  12    7   16 1
  13    8    9 ar
  14    8   10 ar
  15    9   13 ar
  16   10   11 ar
  17   10   35 1
  18   11   12 ar
  19   12   13 ar
  20   12   36 1
  21   13   37 1
  22   14   15 1
  23   14   38 1
  24   15   17 ar
  25   15   21 ar
  26   16   25 1
  27   16   24 1
  28   16   39 1
  29   17   18 ar
  30   18   19 ar
  31   18   40 1
  32   19   20 ar
  33   19   22 1
  34   20   21 ar
  35   20   41 1
  36   21   42 1
  37   22   23 1
  38   22   28 1
  39   23   29 1
  40   23   33 1
  41   23   43 1
  42   24   27 1
  43   24   44 1
  44   24   45 1
  45   25   26 1
  46   25   46 1
  47   25   47 1
  48   26   27 1
  49   26   48 1
  50   26   49 1
  51   27   50 1
  52   27   51 1
  53   28   52 1
  54   28   53 1
  55   28   54 1
  56   29   30 1
  57   29   55 1
  58   29   56 1
  59   30   31 1
  60   30   57 1
  61   31   32 1
  62   31   58 1
  63   31   59 1
  64   32   33 1
  65   32   60 1
  66   32   61 1
  67   33   62 1
  68   33   63 1

#	End of record

