#	Name: ASD01948276
#	Creating user name:	WinNT
#	Creation time:	15. 06. 2019 20:14

#	Modifying user name:	WinNT
#	Modification time:	15. 06. 2019 20:14

#	Program:	/corina/corina34_cracker 3.40 0067  02.08.2006

@<TRIPOS>MOLECULE
ASD01948276
  42   44    0    0    0
SMALL
NO_CHARGES


@<TRIPOS>ATOM
   1 C1             1.4552     4.9316    -1.2958 C.ar    
   2 C2             1.9381     4.9369    -2.5928 C.ar    
   3 C3             3.0491     4.1822    -2.9234 C.ar    
   4 C4             3.6807     3.4195    -1.9597 C.ar    
   5 C5             3.2001     3.4110    -0.6576 C.ar    
   6 C6             2.0827     4.1712    -0.3267 C.ar    
   7 N7             4.6423     0.4977    -0.3112 N.am    
   8 C8             4.8829     1.8099    -0.0291 C.2     
   9 N9             3.8375     2.6393     0.3201 N.pl3   
  10 C10            5.6469    -0.3295    -0.6542 C.2     
  11 C11            6.9598     0.1439    -0.7275 C.2     
  12 C12            7.2240     1.4693    -0.4451 C.2     
  13 C13            6.1697     2.3138    -0.0909 C.2     
  14 N14            6.4146     3.6685     0.2008 N.am    
  15 Br15           1.0769     5.9778    -3.9159 Br      
  16 O16            5.4097    -1.5022    -0.9027 O.2     
  17 F17            1.6115     4.1658     0.9394 F       
  18 C18            3.2738    -0.0195    -0.2341 C.3     
  19 S19            7.9395     4.2904     0.0267 S.o2    
  20 O20            7.8041     5.6573     0.3905 O.2     
  21 O21            8.7646     3.4106     0.7780 O.2     
  22 C22            8.2920     4.1353    -1.7459 C.3     
  23 C23            9.6364     4.6658    -2.2479 C.3     
  24 C24            9.3919     3.1577    -2.1647 C.3     
  25 C25            8.0808    -0.7872    -1.1116 C.3     
  26 H26            0.5902     5.5254    -1.0395 H       
  27 H27            3.4233     4.1887    -3.9365 H       
  28 H28            4.5477     2.8302    -2.2195 H       
  29 H29            3.5443     2.6875     1.2435 H       
  30 H30            8.2339     1.8486    -0.4978 H       
  31 H31            5.6902     4.2380     0.5038 H       
  32 H32            2.7600     0.1703    -1.1765 H       
  33 H33            3.3011    -1.0927    -0.0450 H       
  34 H34            2.7421     0.4789     0.5764 H       
  35 H35            7.4316     4.2386    -2.4071 H       
  36 H36            9.6606     5.1177    -3.2395 H       
  37 H37           10.3091     5.1079    -1.5130 H       
  38 H38            9.9038     2.6077    -1.3750 H       
  39 H39            9.2552     2.6175    -3.1015 H       
  40 H40            7.6789    -1.7838    -1.2942 H       
  41 H41            8.5649    -0.4193    -2.0162 H       
  42 H42            8.8094    -0.8320    -0.3021 H       
@<TRIPOS>BOND
   1    1    2 ar
   2    1    6 ar
   3    1   26 1
   4    2    3 ar
   5    2   15 1
   6    3    4 ar
   7    3   27 1
   8    4    5 ar
   9    4   28 1
  10    5    6 ar
  11    5    9 1
  12    6   17 1
  13    7    8 1
  14    7   10 am
  15    7   18 1
  16    8    9 1
  17    8   13 2
  18    9   29 1
  19   10   11 1
  20   10   16 2
  21   11   12 2
  22   11   25 1
  23   12   13 1
  24   12   30 1
  25   13   14 1
  26   14   19 am
  27   14   31 1
  28   18   32 1
  29   18   33 1
  30   18   34 1
  31   19   20 2
  32   19   21 2
  33   19   22 1
  34   22   23 1
  35   22   24 1
  36   22   35 1
  37   23   24 1
  38   23   36 1
  39   23   37 1
  40   24   38 1
  41   24   39 1
  42   25   40 1
  43   25   41 1
  44   25   42 1

#	End of record

