#	Name: ASD08170060
#	Creating user name:	WinNT
#	Creation time:	15. 06. 2019 21:17

#	Modifying user name:	WinNT
#	Modification time:	15. 06. 2019 21:17

#	Program:	/corina/corina34_cracker 3.40 0067  02.08.2006

@<TRIPOS>MOLECULE
ASD08170060
  99  102    0    0    0
SMALL
NO_CHARGES


@<TRIPOS>ATOM
   1 N1             1.6943     1.7264    -1.3888 N.2     
   2 N2             1.5935     0.4732    -1.5034 N.2     
   3 C3             2.8650     2.2570    -1.5761 C.2     
   4 S4             3.9804     1.0099    -1.9443 S.3     
   5 C5             2.6777    -0.1706    -1.7998 C.2     
   6 C6             2.8035    -1.6606    -1.9874 C.3     
   7 C7             2.5526    -2.0128    -3.4550 C.3     
   8 C8             2.4703    -5.5084    -5.8092 C.3     
   9 C9             2.1998    -5.6888    -7.2807 C.2     
  10 N10            3.0831    -5.6692    -8.2278 N.2     
  11 S11            0.6244    -5.9723    -8.0219 S.3     
  12 C12            1.3783    -6.0221    -9.5593 C.2     
  13 N13            2.6549    -5.8406    -9.4031 N.2     
  14 N14            0.7313    -6.2276   -10.7731 N.am    
  15 C15            1.4395    -6.2453   -11.9197 C.2     
  16 O16            2.6410    -6.0819   -11.8930 O.2     
  17 C17            0.7384    -6.4680   -13.2350 C.3     
  18 N18            3.1634     3.6127    -1.4922 N.am    
  19 C19            2.1931     4.4991    -1.1933 C.2     
  20 C20            2.5165     5.9682    -1.1023 C.3     
  21 O21            1.0597     4.1144    -0.9976 O.2     
  22 C22            2.3784    -4.0235    -5.4521 C.3     
  23 N23            1.7202    -6.4432   -14.3220 N.am    
  24 N24            1.3020     6.7157    -0.7673 N.am    
  25 S25            2.7040    -3.8063    -3.6808 S.3     
  26 C26            3.5694     6.1922    -0.0151 C.3     
  27 C27            0.4810     7.1418    -1.7476 C.2     
  28 O28           -0.6813     7.7463    -1.4371 O.3     
  29 O29            0.7898     6.9804    -2.9117 O.2     
  30 C30           -1.5155     8.1792    -2.5439 C.3     
  31 C31           -1.8971     6.9690    -3.3987 C.3     
  32 C32           -2.7838     8.8390    -1.9989 C.3     
  33 C33           -0.7446     9.1857    -3.4003 C.3     
  34 C34            2.0539    -5.2733   -14.9021 C.2     
  35 O35            1.6042    -4.2307   -14.4697 O.2     
  36 O36            2.8856    -5.2600   -15.9608 O.3     
  37 C37            3.2013    -3.9641   -16.5348 C.3     
  38 C38            3.8705    -3.0864   -15.4753 C.3     
  39 C39            4.1525    -4.1489   -17.7189 C.3     
  40 C40            1.9137    -3.2917   -17.0151 C.3     
  41 C41            0.0347    -7.8264   -13.2142 C.3     
  42 C42           -0.6740    -8.0735   -14.5575 C.3     
  43 C43            1.0719    -8.9563   -13.0488 C.3     
  44 C44            0.5296   -10.1028   -13.9380 C.3     
  45 C45           -0.0428    -9.3449   -15.1615 C.3     
  46 C46            3.9169     7.6881     0.0819 C.3     
  47 C47            3.0047     5.7809     1.3603 C.3     
  48 C48            3.5941     6.8252     2.3406 C.3     
  49 C49            3.5512     8.1336     1.5128 C.3     
  50 H50            3.8066    -1.9791    -1.7037 H       
  51 H51            2.0702    -2.1688    -1.3612 H       
  52 H52            1.5495    -1.6943    -3.7387 H       
  53 H53            3.2858    -1.5045    -4.0811 H       
  54 H54            1.7327    -6.0670    -5.2330 H       
  55 H55            3.4690    -5.8772    -5.5754 H       
  56 H56           -0.2296    -6.3583   -10.7945 H       
  57 H57            0.0022    -5.6798   -13.3923 H       
  58 H58            4.0699     3.9204    -1.6487 H       
  59 H59            2.9040     6.3149    -2.0603 H       
  60 H60            3.1161    -3.4649    -6.0283 H       
  61 H61            1.3797    -3.6547    -5.6858 H       
  62 H62            2.1301    -7.2687   -14.6243 H       
  63 H63            1.0886     6.9040     0.1600 H       
  64 H64            4.4661     5.6144    -0.2394 H       
  65 H65           -2.4463     6.2519    -2.7885 H       
  66 H66           -2.5233     7.2939    -4.2295 H       
  67 H67           -0.9935     6.4989    -3.7869 H       
  68 H68           -2.5119     9.7011    -1.3900 H       
  69 H69           -3.4100     9.1639    -2.8298 H       
  70 H70           -3.3330     8.1219    -1.3888 H       
  71 H71            0.1590     8.7157    -3.7885 H       
  72 H72           -1.3708     9.5107    -4.2311 H       
  73 H73           -0.4727    10.0479    -2.7913 H       
  74 H74            4.7878    -3.5654   -15.1331 H       
  75 H75            4.1074    -2.1136   -15.9061 H       
  76 H76            3.1928    -2.9548   -14.6317 H       
  77 H77            3.6758    -4.7742   -18.4737 H       
  78 H78            4.3895    -3.1761   -18.1498 H       
  79 H79            5.0698    -4.6279   -17.3767 H       
  80 H80            1.2360    -3.1601   -16.1715 H       
  81 H81            2.1506    -2.3190   -17.4460 H       
  82 H82            1.4369    -3.9171   -17.7699 H       
  83 H83           -0.6881    -7.8598   -12.3990 H       
  84 H84           -1.7406    -8.2276   -14.3941 H       
  85 H85           -0.5167    -7.2256   -15.2242 H       
  86 H86            2.0505    -8.6305   -13.4013 H       
  87 H87            1.1268    -9.2744   -12.0077 H       
  88 H88            1.3356   -10.7715   -14.2403 H       
  89 H89           -0.2570   -10.6530   -13.4218 H       
  90 H90           -0.8015    -9.9465   -15.6622 H       
  91 H91            0.7558    -9.0818   -15.8551 H       
  92 H92            4.9823     7.8361    -0.0945 H       
  93 H93            3.3354     8.2544    -0.6456 H       
  94 H94            1.9159     5.8330     1.3566 H       
  95 H95            3.3386     4.7778     1.6253 H       
  96 H96            2.9731     6.9116     3.2322 H       
  97 H97            4.6199     6.5697     2.6063 H       
  98 H98            4.2840     8.8474     1.8891 H       
  99 H99            2.5507     8.5656     1.5338 H       
@<TRIPOS>BOND
   1    1    2 1
   2    1    3 2
   3    2    5 2
   4    3    4 1
   5    3   18 1
   6    4    5 1
   7    5    6 1
   8    6    7 1
   9    6   50 1
  10    6   51 1
  11    7   25 1
  12    7   52 1
  13    7   53 1
  14    8    9 1
  15    8   22 1
  16    8   54 1
  17    8   55 1
  18    9   10 2
  19    9   11 1
  20   10   13 1
  21   11   12 1
  22   12   13 2
  23   12   14 1
  24   14   15 am
  25   14   56 1
  26   15   16 2
  27   15   17 1
  28   17   23 1
  29   17   41 1
  30   17   57 1
  31   18   19 am
  32   18   58 1
  33   19   20 1
  34   19   21 2
  35   20   24 1
  36   20   26 1
  37   20   59 1
  38   22   25 1
  39   22   60 1
  40   22   61 1
  41   23   34 am
  42   23   62 1
  43   24   27 am
  44   24   63 1
  45   26   46 1
  46   26   47 1
  47   26   64 1
  48   27   28 1
  49   27   29 2
  50   28   30 1
  51   30   31 1
  52   30   32 1
  53   30   33 1
  54   31   65 1
  55   31   66 1
  56   31   67 1
  57   32   68 1
  58   32   69 1
  59   32   70 1
  60   33   71 1
  61   33   72 1
  62   33   73 1
  63   34   35 2
  64   34   36 1
  65   36   37 1
  66   37   38 1
  67   37   39 1
  68   37   40 1
  69   38   74 1
  70   38   75 1
  71   38   76 1
  72   39   77 1
  73   39   78 1
  74   39   79 1
  75   40   80 1
  76   40   81 1
  77   40   82 1
  78   41   42 1
  79   41   43 1
  80   41   83 1
  81   42   45 1
  82   42   84 1
  83   42   85 1
  84   43   44 1
  85   43   86 1
  86   43   87 1
  87   44   45 1
  88   44   88 1
  89   44   89 1
  90   45   90 1
  91   45   91 1
  92   46   49 1
  93   46   92 1
  94   46   93 1
  95   47   48 1
  96   47   94 1
  97   47   95 1
  98   48   49 1
  99   48   96 1
 100   48   97 1
 101   49   98 1
 102   49   99 1

#	End of record

