#	Name: ASD03090845
#	Creating user name:	WinNT
#	Creation time:	15. 06. 2019 20:29

#	Modifying user name:	WinNT
#	Modification time:	15. 06. 2019 20:29

#	Program:	/corina/corina34_cracker 3.40 0067  02.08.2006

@<TRIPOS>MOLECULE
ASD03090845
  46   49    0    0    0
SMALL
NO_CHARGES


@<TRIPOS>ATOM
   1 C1             0.0271     1.4571     0.0103 C.ar    
   2 C2             0.0662     0.0761    -0.0090 C.ar    
   3 C3             1.2872    -0.5818    -0.0241 C.ar    
   4 C4             2.4666     0.1491    -0.0198 C.ar    
   5 C5             2.4222     1.5295    -0.0004 C.ar    
   6 C6             1.2036     2.1831     0.0146 C.ar    
   7 S7            -1.5236     2.2938     0.0220 S.o2    
   8 O8            -1.2832     3.5916    -0.5043 O.2     
   9 O9            -2.4702     1.3922    -0.5350 O.2     
  10 N10           -1.9549     2.5044     1.6070 N.am    
  11 S11           -4.2817     3.7709     0.7832 S.3     
  12 C12           -3.0791     3.1070     1.9053 C.2     
  13 N13           -3.5848     3.3630     3.1528 N.pl3   
  14 C14           -4.7860     4.0104     3.2039 C.2     
  15 C15           -5.3683     4.3399     2.0632 C.2     
  16 O16           -0.9099     1.8646     7.7635 O.3     
  17 C17            0.0307     0.7904     7.6579 C.3     
  18 C18            0.9052     1.0374     6.4211 C.3     
  19 O19            0.0528     1.0830     5.2717 O.3     
  20 C20           -1.0766     1.8355     5.3768 C.ar    
  21 C21           -1.5593     2.2241     6.6215 C.ar    
  22 C22           -1.7497     2.2143     4.2260 C.ar    
  23 C23           -2.9042     2.9796     4.3168 C.ar    
  24 C24           -3.3847     3.3646     5.5609 C.ar    
  25 C25           -2.7139     2.9872     6.7084 C.ar    
  26 F26            1.5805     2.2552     6.5563 F       
  27 F27            1.8301    -0.0029     6.2818 F       
  28 F28            0.8333     0.7518     8.8032 F       
  29 F29           -0.6521    -0.4226     7.5184 F       
  30 C30           -6.6845     5.0524     1.8876 C.3     
  31 O31            1.3283    -1.9401    -0.0427 O.3     
  32 C32            2.6205    -2.5499    -0.0575 C.3     
  33 H33           -0.8532    -0.4906    -0.0120 H       
  34 H34            3.4185    -0.3609    -0.0311 H       
  35 H35            3.3399     2.0988     0.0033 H       
  36 H36            1.1709     3.2625     0.0294 H       
  37 H37           -5.2485     4.2467     4.1509 H       
  38 H38           -1.3752     1.9149     3.2582 H       
  39 H39           -4.2835     3.9591     5.6320 H       
  40 H40           -3.0896     3.2875     7.6754 H       
  41 H41           -6.8909     5.1776     0.8246 H       
  42 H42           -7.4799     4.4643     2.3453 H       
  43 H43           -6.6348     6.0307     2.3657 H       
  44 H44            2.5105    -3.6342    -0.0716 H       
  45 H45            3.1639    -2.2283    -0.9460 H       
  46 H46            3.1730    -2.2523     0.8338 H       
@<TRIPOS>BOND
   1    1    2 ar
   2    1    6 ar
   3    1    7 1
   4    2    3 ar
   5    2   33 1
   6    3    4 ar
   7    3   31 1
   8    4    5 ar
   9    4   34 1
  10    5    6 ar
  11    5   35 1
  12    6   36 1
  13    7    8 2
  14    7    9 2
  15    7   10 am
  16   10   12 2
  17   11   12 1
  18   11   15 1
  19   12   13 1
  20   13   14 1
  21   13   23 1
  22   14   15 2
  23   14   37 1
  24   15   30 1
  25   16   17 1
  26   16   21 1
  27   17   18 1
  28   17   28 1
  29   17   29 1
  30   18   19 1
  31   18   26 1
  32   18   27 1
  33   19   20 1
  34   20   21 ar
  35   20   22 ar
  36   21   25 ar
  37   22   23 ar
  38   22   38 1
  39   23   24 ar
  40   24   25 ar
  41   24   39 1
  42   25   40 1
  43   30   41 1
  44   30   42 1
  45   30   43 1
  46   31   32 1
  47   32   44 1
  48   32   45 1
  49   32   46 1

#	End of record

