#	Name: ASD01120371
#	Creating user name:	WinNT
#	Creation time:	15. 06. 2019 18:59

#	Modifying user name:	WinNT
#	Modification time:	15. 06. 2019 18:59

#	Program:	/corina/corina34_cracker 3.40 0067  02.08.2006

@<TRIPOS>MOLECULE
ASD01120371
  40   42    0    0    0
SMALL
NO_CHARGES


@<TRIPOS>ATOM
   1 C1            -0.0169     1.3954     0.0097 C.ar    
   2 C2             0.0021    -0.0041     0.0020 C.ar    
   3 C3            -1.1617    -0.7162     0.0089 C.ar    
   4 C4            -2.3880    -0.0558     0.0241 C.ar    
   5 C5            -2.4224     1.3534     0.0325 C.ar    
   6 C6            -1.2241     2.0762     0.0307 C.ar    
   7 N7            -3.6899    -0.4976     0.0342 N.pl3   
   8 C8            -4.5323     0.5977     0.0486 C.2     
   9 C9            -3.7862     1.7340     0.0479 C.2     
  10 C10           -4.3153     3.1450     0.0615 C.3     
  11 C11           -4.4805     3.6137     1.5085 C.3     
  12 C12           -5.0097     5.0247     1.5221 C.2     
  13 O13           -5.2342     5.6461     2.6906 O.3     
  14 O14           -5.2319     5.5967     0.4813 O.2     
  15 C15           -6.0002     0.5428     0.0626 C.2     
  16 O16           -6.6468     1.5722     0.0743 O.2     
  17 O17           -6.6303    -0.6493     0.0624 O.3     
  18 C18            1.2593     2.1525     0.0016 C.ar    
  19 C19            2.4755     1.4727    -0.0137 C.ar    
  20 C20            3.6595     2.1820    -0.0216 C.ar    
  21 C21            3.6402     3.5650    -0.0141 C.ar    
  22 C22            2.4357     4.2449     0.0016 C.ar    
  23 C23            1.2457     3.5458     0.0034 C.ar    
  24 N24           -1.1210    -2.1958    -0.0005 N.pl3   
  25 O25           -0.0499    -2.7755    -0.0142 O.2     
  26 O26           -2.1586    -2.8337     0.0056 O.2     
  27 H27            0.9477    -0.5257    -0.0098 H       
  28 H28           -1.2399     3.1561     0.0374 H       
  29 H29           -3.9710    -1.4260     0.0314 H       
  30 H30           -3.6146     3.8008    -0.4551 H       
  31 H31           -5.2811     3.1757    -0.4429 H       
  32 H32           -5.1813     2.9579     2.0251 H       
  33 H33           -3.5148     3.5830     2.0129 H       
  34 H34           -5.5737     6.5505     2.6487 H       
  35 H35           -7.5972    -0.6348     0.0718 H       
  36 H36            2.4917     0.3929    -0.0189 H       
  37 H37            4.6028     1.6561    -0.0335 H       
  38 H38            4.5690     4.1161    -0.0200 H       
  39 H39            2.4264     5.3249     0.0078 H       
  40 H40            0.3058     4.0777     0.0152 H       
@<TRIPOS>BOND
   1    1    2 ar
   2    1   18 1
   3    1    6 ar
   4    2    3 ar
   5    2   27 1
   6    3   24 1
   7    3    4 ar
   8    4    5 ar
   9    4    7 1
  10    5    6 ar
  11    5    9 1
  12    6   28 1
  13    7    8 1
  14    7   29 1
  15    8    9 2
  16    8   15 1
  17    9   10 1
  18   10   11 1
  19   10   30 1
  20   10   31 1
  21   11   12 1
  22   11   32 1
  23   11   33 1
  24   12   13 1
  25   12   14 2
  26   13   34 1
  27   15   16 2
  28   15   17 1
  29   17   35 1
  30   18   19 ar
  31   18   23 ar
  32   19   20 ar
  33   19   36 1
  34   20   21 ar
  35   20   37 1
  36   21   22 ar
  37   21   38 1
  38   22   23 ar
  39   22   39 1
  40   23   40 1
  41   24   25 2
  42   24   26 2

#	End of record

