#	Name: ASD03570012
#	Creating user name:	WinNT
#	Creation time:	15. 06. 2019 20:43

#	Modifying user name:	WinNT
#	Modification time:	15. 06. 2019 20:43

#	Program:	/corina/corina34_cracker 3.40 0067  02.08.2006

@<TRIPOS>MOLECULE
ASD03570012
  48   51    0    0    0
SMALL
NO_CHARGES


@<TRIPOS>ATOM
   1 C1            -0.0359     1.3731    -0.5146 C.ar    
   2 C2            -0.0125    -0.0219    -0.4336 C.ar    
   3 C3             1.1934    -0.7019    -0.3173 C.ar    
   4 C4             2.3908     0.0028    -0.2809 C.ar    
   5 C5             2.3767     1.4089    -0.3625 C.ar    
   6 C6             1.1460     2.0926    -0.4801 C.ar    
   7 N7             3.7055    -0.3895    -0.1742 N.pl3   
   8 C8             4.5065     0.7365    -0.1874 C.2     
   9 C9             3.7190     1.8411    -0.3012 C.2     
  10 C10            4.1953     3.2699    -0.3531 C.3     
  11 C11            4.3025     3.7191    -1.8117 C.3     
  12 C12           -1.2853    -0.7825    -0.4715 C.ar    
  13 C13            1.1206     3.5715    -0.5666 C.ar    
  14 C14           -1.2713    -2.1739    -0.3913 C.ar    
  15 C15           -2.4587    -2.8764    -0.4272 C.ar    
  16 C16           -3.6611    -2.2022    -0.5425 C.ar    
  17 C17           -3.6809    -0.8213    -0.6225 C.ar    
  18 C18           -2.5001    -0.1081    -0.5818 C.ar    
  19 C19            0.5995     4.1977    -1.6984 C.ar    
  20 C20            0.5786     5.5754    -1.7731 C.ar    
  21 C21            1.0733     6.3352    -0.7281 C.ar    
  22 C22            1.5919     5.7196     0.3971 C.ar    
  23 C23            1.6125     4.3428     0.4860 C.ar    
  24 C24            4.7788     5.1479    -1.8636 C.2     
  25 O25            5.0089     5.7456    -0.8390 O.2     
  26 O26            4.9474     5.7566    -3.0480 O.3     
  27 C27            5.9715     0.7408    -0.0933 C.2     
  28 O28            6.5789     1.7938    -0.1144 O.2     
  29 O29            6.6436    -0.4233     0.0164 O.3     
  30 H30           -0.9789     1.8911    -0.6089 H       
  31 H31            1.2004    -1.7800    -0.2547 H       
  32 H32            4.0181    -1.3048    -0.1014 H       
  33 H33            3.4856     3.9087     0.1726 H       
  34 H34            5.1730     3.3444     0.1228 H       
  35 H35            5.0121     3.0803    -2.3374 H       
  36 H36            3.3247     3.6446    -2.2876 H       
  37 H37           -0.3332    -2.7013    -0.3016 H       
  38 H38           -2.4491    -3.9546    -0.3654 H       
  39 H39           -4.5878    -2.7560    -0.5705 H       
  40 H40           -4.6225    -0.3002    -0.7128 H       
  41 H41           -2.5168     0.9700    -0.6440 H       
  42 H42            0.2133     3.6057    -2.5149 H       
  43 H43            0.1756     6.0616    -2.6492 H       
  44 H44            1.0548     7.4132    -0.7911 H       
  45 H45            1.9770     6.3180     1.2095 H       
  46 H46            2.0177     3.8633     1.3649 H       
  47 H47            5.2545     6.6734    -3.0306 H       
  48 H48            7.6073    -0.3699     0.0755 H       
@<TRIPOS>BOND
   1    1    2 ar
   2    1    6 ar
   3    1   30 1
   4    2    3 ar
   5    2   12 1
   6    3    4 ar
   7    3   31 1
   8    4    5 ar
   9    4    7 1
  10    5    6 ar
  11    5    9 1
  12    6   13 1
  13    7    8 1
  14    7   32 1
  15    8    9 2
  16    8   27 1
  17    9   10 1
  18   10   11 1
  19   10   33 1
  20   10   34 1
  21   11   24 1
  22   11   35 1
  23   11   36 1
  24   12   14 ar
  25   12   18 ar
  26   13   19 ar
  27   13   23 ar
  28   14   15 ar
  29   14   37 1
  30   15   16 ar
  31   15   38 1
  32   16   17 ar
  33   16   39 1
  34   17   18 ar
  35   17   40 1
  36   18   41 1
  37   19   20 ar
  38   19   42 1
  39   20   21 ar
  40   20   43 1
  41   21   22 ar
  42   21   44 1
  43   22   23 ar
  44   22   45 1
  45   23   46 1
  46   24   25 2
  47   24   26 1
  48   26   47 1
  49   27   28 2
  50   27   29 1
  51   29   48 1

#	End of record

