#	Name: ASD01840009
#	Creating user name:	WinNT
#	Creation time:	15. 06. 2019 19:37

#	Modifying user name:	WinNT
#	Modification time:	15. 06. 2019 19:37

#	Program:	/corina/corina34_cracker 3.40 0067  02.08.2006

@<TRIPOS>MOLECULE
ASD01840009
  44   46    0    0    0
SMALL
NO_CHARGES


@<TRIPOS>ATOM
   1 C1             0.2612     1.7553    -0.9986 C.ar    
   2 C2             0.3844     0.5321    -1.6203 C.ar    
   3 N3             1.4992    -0.1676    -1.4972 N.ar    
   4 N4             2.5001     0.2428    -0.8116 N.ar    
   5 C5             1.3546     2.2266    -0.2368 C.ar    
   6 C6             1.5106     3.4573     0.5163 C.2     
   7 C7             2.4928     1.4120    -0.1672 C.ar    
   8 S8             3.7248     2.1822     0.8224 S.3     
   9 C9             2.7121     3.5787     1.1332 C.2     
  10 C10           -0.7558    -0.0104    -2.4429 C.3     
  11 C11           -0.9998     2.5697    -1.1320 C.3     
  12 N12            0.5181     4.4246     0.5975 N.pl3   
  13 C13            3.1107     4.7243     1.9497 C.2     
  14 O14            2.3409     5.6535     2.1119 O.2     
  15 N15            4.3303     4.7517     2.5228 N.am    
  16 C16            4.7296     5.8995     3.3409 C.3     
  17 C17            6.1275     5.6836     3.8609 C.ar    
  18 C18            6.3239     5.0413     5.0691 C.ar    
  19 C19            7.2135     6.1229     3.1270 C.ar    
  20 C20            8.4957     5.9249     3.6041 C.ar    
  21 C21            8.6919     5.2881     4.8152 C.ar    
  22 C22            7.6062     4.8433     5.5461 C.ar    
  23 S23           10.3263     5.0352     5.4230 S.o2    
  24 C24           10.6789     6.5194     6.4046 C.3     
  25 O25           10.2149     3.8957     6.2646 O.2     
  26 O26           11.1343     5.0067     4.2544 O.2     
  27 H27           -0.6487     0.3214    -3.4757 H       
  28 H28           -0.7429    -1.0998    -2.4080 H       
  29 H29           -1.7005     0.3548    -2.0401 H       
  30 H30           -1.6441     2.3851    -0.2724 H       
  31 H31           -0.7455     3.6287    -1.1747 H       
  32 H32           -1.5218     2.2842    -2.0453 H       
  33 H33           -0.4028     4.1925     0.3997 H       
  34 H34            0.7454     5.3326     0.8521 H       
  35 H35            4.9436     4.0113     2.3936 H       
  36 H36            4.7034     6.8047     2.7342 H       
  37 H37            4.0419     6.0044     4.1800 H       
  38 H38            5.4756     4.6945     5.6405 H       
  39 H39            7.0602     6.6204     2.1808 H       
  40 H40            9.3442     6.2675     3.0304 H       
  41 H41            7.7597     4.3418     6.4903 H       
  42 H42            9.9524     6.6015     7.2129 H       
  43 H43           11.6825     6.4477     6.8239 H       
  44 H44           10.6138     7.4008     5.7666 H       
@<TRIPOS>BOND
   1    1    2 ar
   2    1    5 ar
   3    1   11 1
   4    2    3 ar
   5    2   10 1
   6    3    4 ar
   7    4    7 ar
   8    5    7 ar
   9    5    6 1
  10    6    9 2
  11    6   12 1
  12    7    8 1
  13    8    9 1
  14    9   13 1
  15   10   27 1
  16   10   28 1
  17   10   29 1
  18   11   30 1
  19   11   31 1
  20   11   32 1
  21   12   33 1
  22   12   34 1
  23   13   14 2
  24   13   15 am
  25   15   16 1
  26   15   35 1
  27   16   17 1
  28   16   36 1
  29   16   37 1
  30   17   19 ar
  31   17   18 ar
  32   18   22 ar
  33   18   38 1
  34   19   20 ar
  35   19   39 1
  36   20   21 ar
  37   20   40 1
  38   21   22 ar
  39   21   23 1
  40   22   41 1
  41   23   24 1
  42   23   25 2
  43   23   26 2
  44   24   42 1
  45   24   43 1
  46   24   44 1

#	End of record

