#	Name: ASD08170394
#	Creating user name:	WinNT
#	Creation time:	15. 06. 2019 21:17

#	Modifying user name:	WinNT
#	Modification time:	15. 06. 2019 21:17

#	Program:	/corina/corina34_cracker 3.40 0067  02.08.2006

@<TRIPOS>MOLECULE
ASD08170394
  45   48    0    0    0
SMALL
NO_CHARGES


@<TRIPOS>ATOM
   1 N1            -0.0156     1.2978     0.0092 N.2     
   2 C2             0.0021    -0.0041     0.0020 C.2     
   3 S3             1.6908    -0.5171    -0.0169 S.3     
   4 C4             2.1707     1.1812    -0.0123 C.2     
   5 N5             1.0934     1.8980     0.0018 N.2     
   6 C6             7.9366     3.2702     4.7950 C.2     
   7 S7             7.6709     4.6838     5.8176 S.3     
   8 C8             8.3506     3.7855     7.1764 C.2     
   9 N9             8.6803     2.6028     6.7431 N.2     
  10 N10            8.4620     2.3428     5.5286 N.2     
  11 C11            9.2084     3.9585    10.7968 C.2     
  12 C12           -3.5263    -1.1970     0.0310 C.2     
  13 N13            8.8781     5.1521    11.2425 N.2     
  14 N14           -3.5170    -2.5131     0.0248 N.2     
  15 N15            9.1646     5.2365    12.4932 N.2     
  16 C16            9.6891     4.1098    12.9092 C.2     
  17 N17            9.7301     3.2657    11.8590 N.pl3   
  18 N18           -4.7263    -2.9499     0.0352 N.2     
  19 C19           -5.5656    -1.9434     0.0485 C.2     
  20 N20           -4.8408    -0.8069     0.0515 N.pl3   
  21 N21           -1.1084    -0.8391     0.0088 N.am    
  22 C22           -2.3484    -0.3112     0.0238 C.2     
  23 O23           -2.4953     0.8960     0.0313 O.2     
  24 N24            8.5064     4.2559     8.4743 N.am    
  25 C25            9.0431     3.4595     9.4199 C.2     
  26 O26            9.3909     2.3290     9.1370 O.2     
  27 C27            3.5841     1.7039    -0.0230 C.3     
  28 C28            4.0762     1.8730     1.4158 C.3     
  29 S29            5.7776     2.5022     1.4029 S.3     
  30 C30            6.1771     2.6342     3.1674 C.3     
  31 C31            7.6046     3.1606     3.3291 C.3     
  32 H32           10.0241     3.8949    13.9131 H       
  33 H33           10.0657     2.3557    11.8542 H       
  34 H34           -6.6433    -2.0121     0.0593 H       
  35 H35           -5.1800     0.1018     0.0606 H       
  36 H36           -0.9912    -1.8019     0.0028 H       
  37 H37            8.2290     5.1576     8.7000 H       
  38 H38            4.2286     0.9980    -0.5468 H       
  39 H39            3.6113     2.6674    -0.5320 H       
  40 H40            3.4317     2.5790     1.9396 H       
  41 H41            4.0489     0.9095     1.9247 H       
  42 H42            5.4801     3.3211     3.6474 H       
  43 H43            6.0973     1.6517     3.6325 H       
  44 H44            7.6845     4.1431     2.8639 H       
  45 H45            8.3017     2.4736     2.8491 H       
@<TRIPOS>BOND
   1    1    2 2
   2    1    5 1
   3    2    3 1
   4    2   21 1
   5    3    4 1
   6    4    5 2
   7    4   27 1
   8    6    7 1
   9    6   31 1
  10    6   10 2
  11    7    8 1
  12    8    9 2
  13    8   24 1
  14    9   10 1
  15   11   13 2
  16   11   25 1
  17   11   17 1
  18   12   14 2
  19   12   22 1
  20   12   20 1
  21   13   15 1
  22   14   18 1
  23   15   16 2
  24   16   17 1
  25   16   32 1
  26   17   33 1
  27   18   19 2
  28   19   20 1
  29   19   34 1
  30   20   35 1
  31   21   22 am
  32   21   36 1
  33   22   23 2
  34   24   25 am
  35   24   37 1
  36   25   26 2
  37   27   28 1
  38   27   38 1
  39   27   39 1
  40   28   29 1
  41   28   40 1
  42   28   41 1
  43   29   30 1
  44   30   31 1
  45   30   42 1
  46   30   43 1
  47   31   44 1
  48   31   45 1

#	End of record

