#	Name: ASD04880112
#	Creating user name:	WinNT
#	Creation time:	15. 06. 2019 20:52

#	Modifying user name:	WinNT
#	Modification time:	15. 06. 2019 20:52

#	Program:	/corina/corina34_cracker 3.40 0067  02.08.2006

@<TRIPOS>MOLECULE
ASD04880112
  36   38    0    0    0
SMALL
NO_CHARGES


@<TRIPOS>ATOM
   1 C1            -0.0144     1.2118     0.0087 C.2     
   2 O2             0.0579    -0.0018    -0.0140 O.2     
   3 C3             1.2186     2.0262    -0.0193 C.ar    
   4 C4             2.4678     1.4099     0.0724 C.ar    
   5 C5             3.6163     2.1773     0.0450 C.ar    
   6 C6             3.5286     3.5555    -0.0732 C.ar    
   7 C7             2.2930     4.1702    -0.1643 C.ar    
   8 C8             1.1390     3.4142    -0.1435 C.ar    
   9 F9             4.8266     1.5837     0.1340 F       
  10 N10           -1.2191     1.8144     0.0538 N.am    
  11 N11           -1.4357     3.1835     0.1955 N.2     
  12 C12           -2.6792     3.5208     0.2115 C.2     
  13 C13           -3.5394     2.2858     0.0670 C.3     
  14 C14           -2.5205     1.1345    -0.0448 C.3     
  15 C15           -4.5578     5.1522     0.3550 C.ar    
  16 C16           -3.1851     4.8987     0.3494 C.ar    
  17 C17           -2.2947     5.9746     0.4775 C.ar    
  18 C18           -2.8177     7.2472     0.6045 C.ar    
  19 C19           -4.1986     7.4183     0.6012 C.ar    
  20 N20           -5.0126     6.3823     0.4786 N.ar    
  21 O21           -4.7179     8.6653     0.7260 O.3     
  22 C22           -6.1423     8.7789     0.7159 C.3     
  23 Cl23          -1.7639     8.6171     0.7669 Cl      
  24 H24            2.5363     0.3360     0.1648 H       
  25 H25            4.4288     4.1519    -0.0938 H       
  26 H26            2.2315     5.2445    -0.2562 H       
  27 H27            0.1754     3.8960    -0.2193 H       
  28 H28           -4.1730     2.1564     0.9444 H       
  29 H29           -4.1447     2.3452    -0.8376 H       
  30 H30           -2.6163     0.6269    -1.0046 H       
  31 H31           -2.6485     0.4302     0.7772 H       
  32 H32           -5.2534     4.3325     0.2526 H       
  33 H33           -1.2270     5.8124     0.4773 H       
  34 H34           -6.5309     8.3927    -0.2264 H       
  35 H35           -6.5585     8.2041     1.5433 H       
  36 H36           -6.4241     9.8263     0.8232 H       
@<TRIPOS>BOND
   1    1    2 2
   2    1    3 1
   3    1   10 am
   4    3    4 ar
   5    3    8 ar
   6    4    5 ar
   7    4   24 1
   8    5    6 ar
   9    5    9 1
  10    6    7 ar
  11    6   25 1
  12    7    8 ar
  13    7   26 1
  14    8   27 1
  15   10   11 1
  16   10   14 1
  17   11   12 2
  18   12   13 1
  19   12   16 1
  20   13   14 1
  21   13   28 1
  22   13   29 1
  23   14   30 1
  24   14   31 1
  25   15   16 ar
  26   15   20 ar
  27   15   32 1
  28   16   17 ar
  29   17   18 ar
  30   17   33 1
  31   18   19 ar
  32   18   23 1
  33   19   20 ar
  34   19   21 1
  35   21   22 1
  36   22   34 1
  37   22   35 1
  38   22   36 1

#	End of record

