#	Name: ASD05430221
#	Creating user name:	WinNT
#	Creation time:	15. 06. 2019 21:00

#	Modifying user name:	WinNT
#	Modification time:	15. 06. 2019 21:00

#	Program:	/corina/corina34_cracker 3.40 0067  02.08.2006

@<TRIPOS>MOLECULE
ASD05430221
  63   69    0    0    0
SMALL
NO_CHARGES


@<TRIPOS>ATOM
   1 C1            -0.0705     1.2184    -0.3184 C.ar    
   2 C2            -0.0153    -0.0174     0.3253 C.ar    
   3 C3            -1.1649    -0.5695     0.8758 C.ar    
   4 C4            -2.3652     0.1013     0.7885 C.ar    
   5 C5            -2.4282     1.3412     0.1443 C.ar    
   6 C6            -1.2700     1.8993    -0.4052 C.ar    
   7 C7            -4.8745    -0.1261    -0.2255 C.3     
   8 C8            -4.8620     1.3704    -0.0439 C.2     
   9 C9            -3.7098     2.0594     0.0500 C.2     
  10 C10           -6.0030    -0.5704    -1.1481 C.3     
  11 C11           -7.3829     0.0050    -0.8507 C.3     
  12 N12           -7.3271     1.3889    -0.4131 N.pl3   
  13 C13           -6.1731     2.0438     0.0257 C.2     
  14 N14            1.2029    -0.7043     0.4166 N.pl3   
  15 C15            2.0614    -0.9646    -0.6033 C.2     
  16 C16            1.7559    -1.2351     1.5531 C.2     
  17 C17            2.9222    -1.8028     1.1910 C.2     
  18 N18            3.0835    -1.6231    -0.1283 N.2     
  19 C19            3.8820    -2.5135     2.1100 C.3     
  20 C20           -8.3910     2.3864    -0.3620 C.3     
  21 O21           -7.8618     3.4334     0.4600 O.3     
  22 N22           -6.4560     3.2148     0.4922 N.2     
  23 C23           -8.7789     2.8810    -1.7176 C.ar    
  24 C24          -10.1420     2.6240    -1.8979 C.ar    
  25 N25          -10.7023     2.0044    -0.7946 N.pl3   
  26 C26           -9.6755     1.8077     0.2414 C.3     
  27 N27           -8.0431     3.4665    -2.6466 N.ar    
  28 C28           -8.6165     3.8218    -3.7864 C.ar    
  29 C29           -9.9567     3.6043    -4.0421 C.ar    
  30 C30          -10.7707     2.9917    -3.0934 C.ar    
  31 F31          -10.4828     3.9907    -5.2249 F       
  32 C32           -5.6267    -0.4319    -2.6324 C.3     
  33 S33           -6.6357    -1.8867    -3.0245 S.o2    
  34 C34           -6.0394    -2.0973    -1.3250 C.3     
  35 O35            1.0567     1.7560    -0.8557 O.3     
  36 C36            0.9269     3.0247    -1.5002 C.3     
  37 O37           -8.0244    -1.5921    -3.0876 O.2     
  38 O38           -6.0004    -2.7653    -3.9431 O.2     
  39 H39           -1.1178    -1.5270     1.3731 H       
  40 H40           -3.2576    -0.3304     1.2171 H       
  41 H41           -1.3143     2.8565    -0.9034 H       
  42 H42           -3.9218    -0.4407    -0.6517 H       
  43 H43           -5.0019    -0.6015     0.7470 H       
  44 H44           -3.7253     3.1393     0.0561 H       
  45 H45           -7.9917    -0.0552    -1.7529 H       
  46 H46           -7.8532    -0.5929    -0.0700 H       
  47 H47            1.9218    -0.6752    -1.6344 H       
  48 H48            1.3368    -1.2038     2.5480 H       
  49 H49            3.6264    -3.5722     2.1540 H       
  50 H50            4.8981    -2.4004     1.7320 H       
  51 H51            3.8158    -2.0819     3.1087 H       
  52 H52          -11.6323     1.7401    -0.7156 H       
  53 H53           -9.5498     0.7461     0.4538 H       
  54 H54           -9.9446     2.3476     1.1492 H       
  55 H55           -8.0138     4.2999    -4.5444 H       
  56 H56          -11.8207     2.8104    -3.2691 H       
  57 H57           -6.0031     0.4850    -3.0858 H       
  58 H58           -4.5640    -0.5845    -2.8207 H       
  59 H59           -5.0531    -2.5582    -1.2713 H       
  60 H60           -6.7643    -2.5866    -0.6745 H       
  61 H61            1.8978     3.3385    -1.8837 H       
  62 H62            0.2196     2.9423    -2.3255 H       
  63 H63            0.5643     3.7612    -0.7831 H       
@<TRIPOS>BOND
   1    1    2 ar
   2    1   35 1
   3    1    6 ar
   4    2    3 ar
   5    2   14 1
   6    3    4 ar
   7    3   39 1
   8    4    5 ar
   9    4   40 1
  10    5    6 ar
  11    5    9 1
  12    6   41 1
  13    7    8 1
  14    7   10 1
  15    7   42 1
  16    7   43 1
  17    8    9 2
  18    8   13 1
  19    9   44 1
  20   10   11 1
  21   10   32 1
  22   10   34 1
  23   11   12 1
  24   11   45 1
  25   11   46 1
  26   12   13 1
  27   12   20 1
  28   13   22 2
  29   14   15 1
  30   14   16 1
  31   15   18 2
  32   15   47 1
  33   16   17 2
  34   16   48 1
  35   17   18 1
  36   17   19 1
  37   19   49 1
  38   19   50 1
  39   19   51 1
  40   20   21 1
  41   20   23 1
  42   20   26 1
  43   21   22 1
  44   23   24 ar
  45   23   27 ar
  46   24   25 1
  47   24   30 ar
  48   25   26 1
  49   25   52 1
  50   26   53 1
  51   26   54 1
  52   27   28 ar
  53   28   29 ar
  54   28   55 1
  55   29   30 ar
  56   29   31 1
  57   30   56 1
  58   32   33 1
  59   32   57 1
  60   32   58 1
  61   33   34 1
  62   33   37 2
  63   33   38 2
  64   34   59 1
  65   34   60 1
  66   35   36 1
  67   36   61 1
  68   36   62 1
  69   36   63 1

#	End of record

