#	Name: ASD09116520
#	Creating user name:	WinNT
#	Creation time:	15. 06. 2019 21:21

#	Modifying user name:	WinNT
#	Modification time:	15. 06. 2019 21:21

#	Program:	/corina/corina34_cracker 3.40 0067  02.08.2006

@<TRIPOS>MOLECULE
ASD09116520
  65   71    0    0    0
SMALL
NO_CHARGES


@<TRIPOS>ATOM
   1 N1            -0.0336     1.4254     0.1795 N.2     
   2 N2            -0.0281     0.0300     0.3363 N.pl3   
   3 C3             1.2193     1.8119     0.1471 C.2     
   4 N4             2.0099     0.7397     0.2745 N.2     
   5 C5             1.2720    -0.3437     0.3897 C.2     
   6 N6             1.7413    -1.6348     0.5393 N.pl3   
   7 C7            -1.1427    -0.8064     0.4209 C.ar    
   8 N8             1.6572     3.1285     0.0026 N.pl3   
   9 C9             3.0195     3.4261     0.0968 C.ar    
  10 C10            3.5514     4.5193    -0.5761 C.ar    
  11 C11            3.8656     2.6344     0.8719 C.ar    
  12 C12            5.2061     2.9784     0.9271 C.ar    
  13 C13            5.6618     4.0665     0.2288 C.ar    
  14 N14            4.8355     4.8042    -0.4931 N.ar    
  15 N15           -1.0413    -2.0818     0.0776 N.ar    
  16 N16           -2.0386    -2.8914     0.1279 N.ar    
  17 C17           -3.2356    -2.4935     0.5282 C.ar    
  18 C18           -3.4322    -1.1694     0.9305 C.ar    
  19 C19           -2.3637    -0.2997     0.8732 C.ar    
  20 C20           -4.3990    -3.4105     0.5356 C.ar    
  21 C21           -5.5919    -2.9915    -0.0557 C.ar    
  22 C22           -5.6487    -1.6489    -0.7314 C.3     
  23 C23           -5.7507    -0.5168     0.2872 C.3     
  24 C24           -4.7761    -0.7379     1.4410 C.3     
  25 C25           -4.3177    -4.6683     1.1226 C.ar    
  26 C26           -5.4276    -5.4908     1.1334 C.ar    
  27 C27           -6.6138    -5.0637     0.5647 C.ar    
  28 C28           -6.6964    -3.8156    -0.0282 C.ar    
  29 C29            6.1586     2.1524     1.7629 C.3     
  30 C30            7.0750     1.3638     0.8221 C.3     
  31 C31            8.2681     2.2004     0.3997 C.3     
  32 C32            7.9241     3.3783    -0.4899 C.3     
  33 C33            7.1311     4.4360     0.2807 C.3     
  34 O34            7.5254     0.1770     1.4928 O.3     
  35 C35            7.0656    -0.9526     0.7245 C.3     
  36 C36            6.8156    -0.3443    -0.6779 C.3     
  37 O37            6.3224     0.9744    -0.3417 O.3     
  38 H38            2.6961    -1.8037     0.5666 H       
  39 H39            1.1160    -2.3722     0.6170 H       
  40 H40            1.0162     3.8374    -0.1632 H       
  41 H41            2.9044     5.1432    -1.1749 H       
  42 H42            3.4874     1.7795     1.4129 H       
  43 H43           -2.4685     0.7363     1.1599 H       
  44 H44           -4.7468    -1.5115    -1.3280 H       
  45 H45           -6.5178    -1.6168    -1.3884 H       
  46 H46           -5.5183     0.4287    -0.2027 H       
  47 H47           -6.7672    -0.4770     0.6788 H       
  48 H48           -5.1725    -1.5082     2.1024 H       
  49 H49           -4.6657     0.1914     1.9999 H       
  50 H50           -3.3915    -5.0008     1.5676 H       
  51 H51           -5.3689    -6.4694     1.5865 H       
  52 H52           -7.4807    -5.7075     0.5836 H       
  53 H53           -7.6260    -3.4877    -0.4694 H       
  54 H54            6.7585     2.8102     2.3918 H       
  55 H55            5.5925     1.4610     2.3871 H       
  56 H56            8.7614     2.5764     1.2959 H       
  57 H57            8.9695     1.5581    -0.1330 H       
  58 H58            8.8452     3.8245    -0.8648 H       
  59 H59            7.3283     3.0281    -1.3328 H       
  60 H60            7.2796     5.4128    -0.1798 H       
  61 H61            7.4660     4.4617     1.3176 H       
  62 H62            7.8332    -1.7251     0.6781 H       
  63 H63            6.1409    -1.3515     1.1418 H       
  64 H64            7.7432    -0.2808    -1.2469 H       
  65 H65            6.0636    -0.9151    -1.2227 H       
@<TRIPOS>BOND
   1    1    2 1
   2    1    3 2
   3    2    7 1
   4    2    5 1
   5    3    4 1
   6    3    8 1
   7    4    5 2
   8    5    6 1
   9    6   38 1
  10    6   39 1
  11    7   15 ar
  12    7   19 ar
  13    8    9 1
  14    8   40 1
  15    9   10 ar
  16    9   11 ar
  17   10   14 ar
  18   10   41 1
  19   11   12 ar
  20   11   42 1
  21   12   13 ar
  22   12   29 1
  23   13   14 ar
  24   13   33 1
  25   15   16 ar
  26   16   17 ar
  27   17   18 ar
  28   17   20 1
  29   18   19 ar
  30   18   24 1
  31   19   43 1
  32   20   21 ar
  33   20   25 ar
  34   21   22 1
  35   21   28 ar
  36   22   23 1
  37   22   44 1
  38   22   45 1
  39   23   24 1
  40   23   46 1
  41   23   47 1
  42   24   48 1
  43   24   49 1
  44   25   26 ar
  45   25   50 1
  46   26   27 ar
  47   26   51 1
  48   27   28 ar
  49   27   52 1
  50   28   53 1
  51   29   30 1
  52   29   54 1
  53   29   55 1
  54   30   31 1
  55   30   34 1
  56   30   37 1
  57   31   32 1
  58   31   56 1
  59   31   57 1
  60   32   33 1
  61   32   58 1
  62   32   59 1
  63   33   60 1
  64   33   61 1
  65   34   35 1
  66   35   36 1
  67   35   62 1
  68   35   63 1
  69   36   37 1
  70   36   64 1
  71   36   65 1

#	End of record

