#	Name: ASD01150352
#	Creating user name:	WinNT
#	Creation time:	15. 06. 2019 19:04

#	Modifying user name:	WinNT
#	Modification time:	15. 06. 2019 19:04

#	Program:	/corina/corina34_cracker 3.40 0067  02.08.2006

@<TRIPOS>MOLECULE
ASD01150352
  53   55    0    0    0
SMALL
NO_CHARGES


@<TRIPOS>ATOM
   1 N1            -0.0169     1.3928     0.0097 N.pl3   
   2 C2             0.0021    -0.0041     0.0020 C.2     
   3 C3            -1.3283    -0.4051     0.0131 C.2     
   4 N4            -2.0859     0.6952     0.0265 N.2     
   5 C5            -1.3234     1.7684     0.0302 C.2     
   6 C6             1.1388    -0.8368    -0.0144 C.2     
   7 C7             1.0964     2.2430     0.0036 C.ar    
   8 C8             1.3307     3.0747    -1.0833 C.ar    
   9 C9             2.4290     3.9123    -1.0861 C.ar    
  10 C10            3.2950     3.9227    -0.0081 C.ar    
  11 C11            3.0644     3.0956     1.0758 C.ar    
  12 C12            1.9648     2.2600     1.0870 C.ar    
  13 N13           -1.7777     3.0670     0.0439 N.3     
  14 C14           -3.2460     3.1110     0.0537 C.3     
  15 C15           -1.2212     3.8073     1.1842 C.3     
  16 O16            1.0068    -2.0474    -0.0195 O.2     
  17 O17            2.3746    -0.2923    -0.0245 O.3     
  18 C18            3.4815    -1.1958    -0.0411 C.3     
  19 C19            3.4074    -2.0704    -1.2943 C.3     
  20 C20            4.7887    -0.4008    -0.0506 C.3     
  21 C21            3.4337    -2.0838     1.2040 C.3     
  22 N22           -1.7883    -1.7160     0.0102 N.am    
  23 C23           -3.1128    -1.9654     0.0221 C.2     
  24 O24           -3.9057    -1.0423     0.0353 O.2     
  25 C25           -3.5980    -3.3480     0.0190 C.2     
  26 C26           -4.9111    -3.7276     0.0300 C.2     
  27 C27           -5.0826    -5.0914     0.0240 C.2     
  28 C28           -3.9512    -5.8059     0.0086 C.2     
  29 S29           -2.5845    -4.7846    -0.0070 S.3     
  30 H30            0.6551     3.0665    -1.9258 H       
  31 H31            2.6117     4.5594    -1.9312 H       
  32 H32            4.1535     4.5780    -0.0130 H       
  33 H33            3.7426     3.1061     1.9162 H       
  34 H34            1.7850     1.6145     1.9341 H       
  35 H35           -3.6189     2.6008     0.9418 H       
  36 H36           -3.5783     4.1490     0.0645 H       
  37 H37           -3.6303     2.6157    -0.8380 H       
  38 H38           -0.1335     3.8182     1.1144 H       
  39 H39           -1.5965     4.8306     1.1711 H       
  40 H40           -1.5208     3.3223     2.1133 H       
  41 H41            3.4414    -1.4378    -2.1813 H       
  42 H42            4.2517    -2.7596    -1.3069 H       
  43 H43            2.4761    -2.6368    -1.2875 H       
  44 H44            4.8416     0.2222     0.8422 H       
  45 H45            5.6331    -1.0901    -0.0632 H       
  46 H46            4.8228     0.2317    -0.9376 H       
  47 H47            2.5024    -2.6501     1.2108 H       
  48 H48            4.2780    -2.7730     1.1914 H       
  49 H49            3.4866    -1.4607     2.0968 H       
  50 H50           -1.1563    -2.4518    -0.0003 H       
  51 H51           -5.7320    -3.0259     0.0426 H       
  52 H52           -6.0592    -5.5526     0.0315 H       
  53 H53           -3.9088    -6.8851     0.0025 H       
@<TRIPOS>BOND
   1    1    2 1
   2    1    7 1
   3    1    5 1
   4    2    3 2
   5    2    6 1
   6    3    4 1
   7    3   22 1
   8    4    5 2
   9    5   13 1
  10    6   16 2
  11    6   17 1
  12    7    8 ar
  13    7   12 ar
  14    8    9 ar
  15    8   30 1
  16    9   10 ar
  17    9   31 1
  18   10   11 ar
  19   10   32 1
  20   11   12 ar
  21   11   33 1
  22   12   34 1
  23   13   14 1
  24   13   15 1
  25   14   35 1
  26   14   36 1
  27   14   37 1
  28   15   38 1
  29   15   39 1
  30   15   40 1
  31   17   18 1
  32   18   19 1
  33   18   20 1
  34   18   21 1
  35   19   41 1
  36   19   42 1
  37   19   43 1
  38   20   44 1
  39   20   45 1
  40   20   46 1
  41   21   47 1
  42   21   48 1
  43   21   49 1
  44   22   23 am
  45   22   50 1
  46   23   24 2
  47   23   25 1
  48   25   26 2
  49   25   29 1
  50   26   27 1
  51   26   51 1
  52   27   28 2
  53   27   52 1
  54   28   29 1
  55   28   53 1

#	End of record

