#	Name: ASD00960234
#	Creating user name:	WinNT
#	Creation time:	15. 06. 2019 18:53

#	Modifying user name:	WinNT
#	Modification time:	15. 06. 2019 18:53

#	Program:	/corina/corina34_cracker 3.40 0067  02.08.2006

@<TRIPOS>MOLECULE
ASD00960234
  36   38    0    0    0
SMALL
NO_CHARGES


@<TRIPOS>ATOM
   1 C1            -0.0107     1.4701     0.0154 C.2     
   2 N2            -0.7545     3.5839     0.0221 N.pl3   
   3 C3             0.6172     3.6231     0.0099 C.2     
   4 C4             1.0968     2.3225     0.0031 C.2     
   5 N5            -1.4581     4.7972     0.0306 N.2     
   6 C6            -0.8082     5.9317     0.0268 C.2     
   7 N7             0.5196     5.9857     0.0150 N.2     
   8 C8             1.2566     4.8885     0.0069 C.2     
   9 N9             2.6333     4.9737    -0.0054 N.pl3   
  10 C10           -1.1579     2.2834     0.0234 C.2     
  11 C11            0.0183    -0.0038     0.0138 C.2     
  12 N12           -0.0795    -0.6785    -1.1488 N.am    
  13 S13            0.1762    -0.8585     1.4888 S.2     
  14 C14           -2.5419     1.8144     0.0312 C.2     
  15 O15           -2.7819     0.6256    -0.0650 O.2     
  16 O16           -3.5538     2.7001     0.1452 O.3     
  17 C17           -4.8815     2.1716     0.1458 C.3     
  18 C18           -5.8712     3.3001     0.2803 C.ar    
  19 C19           -6.3675     3.9226    -0.8497 C.ar    
  20 C20           -7.2753     4.9577    -0.7263 C.ar    
  21 C21           -7.6873     5.3700     0.5272 C.ar    
  22 C22           -7.1917     4.7468     1.6573 C.ar    
  23 C23           -6.2872     3.7088     1.5337 C.ar    
  24 H24            2.1345     2.0233    -0.0093 H       
  25 H25           -1.3687     6.8549     0.0331 H       
  26 H26            3.0655     5.8421    -0.0082 H       
  27 H27            3.1693     4.1652    -0.0113 H       
  28 H28           -0.1690    -0.1943    -1.9845 H       
  29 H29           -0.0605    -1.6483    -1.1498 H       
  30 H30           -5.0614     1.6401    -0.7887 H       
  31 H31           -4.9984     1.4839     0.9833 H       
  32 H32           -6.0457     3.6005    -1.8290 H       
  33 H33           -7.6625     5.4446    -1.6091 H       
  34 H34           -8.3960     6.1792     0.6237 H       
  35 H35           -7.5133     5.0691     2.6366 H       
  36 H36           -5.9028     3.2195     2.4164 H       
@<TRIPOS>BOND
   1    1   11 1
   2    1    4 1
   3    1   10 2
   4    2    3 1
   5    2    5 1
   6    2   10 1
   7    3    4 2
   8    3    8 1
   9    4   24 1
  10    5    6 2
  11    6    7 1
  12    6   25 1
  13    7    8 2
  14    8    9 1
  15    9   26 1
  16    9   27 1
  17   10   14 1
  18   11   12 am
  19   11   13 2
  20   12   28 1
  21   12   29 1
  22   14   15 2
  23   14   16 1
  24   16   17 1
  25   17   18 1
  26   17   30 1
  27   17   31 1
  28   18   19 ar
  29   18   23 ar
  30   19   20 ar
  31   19   32 1
  32   20   21 ar
  33   20   33 1
  34   21   22 ar
  35   21   34 1
  36   22   23 ar
  37   22   35 1
  38   23   36 1

#	End of record

