#	Name: ASD01910378
#	Creating user name:	WinNT
#	Creation time:	15. 06. 2019 19:55

#	Modifying user name:	WinNT
#	Modification time:	15. 06. 2019 19:55

#	Program:	/corina/corina34_cracker 3.40 0067  02.08.2006

@<TRIPOS>MOLECULE
ASD01910378
  45   47    0    0    0
SMALL
NO_CHARGES


@<TRIPOS>ATOM
   1 C1            -0.0659     1.4271    -0.0584 C.ar    
   2 C2            -0.0381    -0.0046    -0.0545 C.1     
   3 C3            -0.0153    -1.1784    -0.0512 C.1     
   4 C4             0.0125    -2.6101    -0.0473 C.ar    
   5 C5            -1.1826    -3.3337    -0.1261 C.ar    
   6 C6            -1.1553    -4.6991    -0.1228 C.ar    
   7 C7             0.0662    -5.3740    -0.0402 C.ar    
   8 C8             1.2607    -4.6518     0.0390 C.ar    
   9 C9             1.2353    -3.2863     0.0295 C.ar    
  10 C10            0.0949    -6.8500    -0.0362 C.2     
  11 O11            0.9669    -7.4428    -0.6416 O.2     
  12 N12           -0.8455    -7.5405     0.6386 N.am    
  13 C13            1.1260     2.1528     0.0202 C.ar    
  14 C14            1.0913     3.5315     0.0159 C.ar    
  15 C15           -0.1197     4.1964    -0.0655 C.ar    
  16 C16           -1.3039     3.4846    -0.1436 C.ar    
  17 C17           -1.2846     2.1056    -0.1467 C.ar    
  18 C18           -0.9120    -9.0082     0.5571 C.3     
  19 C19           -0.9694    -9.5695     1.9825 C.3     
  20 O20           -2.0247    -8.9250     2.7000 O.3     
  21 C21           -1.8482    -7.5153     2.8595 C.3     
  22 C22           -1.8323    -6.8492     1.4835 C.3     
  23 C23           -1.2336   -11.0755     1.9284 C.3     
  24 C24           -2.9999    -6.9469     3.6911 C.3     
  25 H25           -2.1264    -2.8125    -0.1892 H       
  26 H26           -2.0777    -5.2577    -0.1836 H       
  27 H27            2.2040    -5.1738     0.1035 H       
  28 H28            2.1580    -2.7285     0.0907 H       
  29 H29            2.0717     1.6353     0.0844 H       
  30 H30            2.0114     4.0937     0.0765 H       
  31 H31           -0.1407     5.2762    -0.0677 H       
  32 H32           -2.2452     4.0103    -0.2064 H       
  33 H33           -2.2096     1.5514    -0.2076 H       
  34 H34           -1.8063    -9.3053     0.0093 H       
  35 H35           -0.0261    -9.3881     0.0484 H       
  36 H36           -0.0205    -9.3834     2.4855 H       
  37 H37           -0.9025    -7.3217     3.3657 H       
  38 H38           -1.5581    -5.7994     1.5870 H       
  39 H39           -2.8185    -6.9282     1.0260 H       
  40 H40           -0.4310   -11.5657     1.3774 H       
  41 H41           -1.2743   -11.4739     2.9422 H       
  42 H42           -2.1838   -11.2600     1.4272 H       
  43 H43           -3.0108    -7.4245     4.6708 H       
  44 H44           -2.8647    -5.8722     3.8122 H       
  45 H45           -3.9447    -7.1392     3.1826 H       
@<TRIPOS>BOND
   1    1    2 1
   2    1   13 ar
   3    1   17 ar
   4    2    3 3
   5    3    4 1
   6    4    5 ar
   7    4    9 ar
   8    5    6 ar
   9    5   25 1
  10    6    7 ar
  11    6   26 1
  12    7    8 ar
  13    7   10 1
  14    8    9 ar
  15    8   27 1
  16    9   28 1
  17   10   11 2
  18   10   12 am
  19   12   18 1
  20   12   22 1
  21   13   14 ar
  22   13   29 1
  23   14   15 ar
  24   14   30 1
  25   15   16 ar
  26   15   31 1
  27   16   17 ar
  28   16   32 1
  29   17   33 1
  30   18   19 1
  31   18   34 1
  32   18   35 1
  33   19   20 1
  34   19   23 1
  35   19   36 1
  36   20   21 1
  37   21   22 1
  38   21   24 1
  39   21   37 1
  40   22   38 1
  41   22   39 1
  42   23   40 1
  43   23   41 1
  44   23   42 1
  45   24   43 1
  46   24   44 1
  47   24   45 1

#	End of record

