#	Name: ASD01885699
#	Creating user name:	WinNT
#	Creation time:	15. 06. 2019 19:50

#	Modifying user name:	WinNT
#	Modification time:	15. 06. 2019 19:50

#	Program:	/corina/corina34_cracker 3.40 0067  02.08.2006

@<TRIPOS>MOLECULE
ASD01885699
  46   50    0    0    0
SMALL
NO_CHARGES


@<TRIPOS>ATOM
   1 C1            -0.0170     1.4037     0.0098 C.ar    
   2 C2            -1.2666     2.0741     0.0193 C.ar    
   3 C3            -1.2876     3.4919     0.0272 C.ar    
   4 C4            -0.0705     4.1595     0.0250 C.ar    
   5 C5             1.1196     3.4233     0.0154 C.ar    
   6 N6             1.1177     2.1038     0.0027 N.ar    
   7 C7             0.0021    -0.0041     0.0020 C.ar    
   8 C8            -1.1700    -0.6951     0.0090 C.ar    
   9 C9            -2.3952    -0.0320     0.0237 C.ar    
  10 C10           -2.4531     1.3297     0.0204 C.ar    
  11 C11           -2.5672     4.2367     0.0368 C.ar    
  12 C12           -2.7778     5.2542     0.9679 C.ar    
  13 C13           -3.9714     5.9450     0.9728 C.ar    
  14 C14           -3.5642     3.9272    -0.8888 C.ar    
  15 C15            2.4154     4.1443     0.0065 C.2     
  16 N16            3.5716     3.4520    -0.0142 N.am    
  17 O17            2.4348     5.3591     0.0180 O.2     
  18 C18           -1.1423    -2.2019     0.0132 C.3     
  19 N19           -1.1523    -2.6943    -1.3665 N.pl3   
  20 C20           -2.2452    -3.0746    -2.0789 C.2     
  21 N21           -1.8909    -3.4583    -3.2716 N.2     
  22 C22           -0.5452    -3.3506    -3.4069 C.ar    
  23 C23           -0.0543    -2.8529    -2.1870 C.ar    
  24 C24           -4.9609     5.6299     0.0550 C.ar    
  25 C25           -4.7544     4.6238    -0.8757 C.ar    
  26 F26           -6.1287     6.3091     0.0641 F       
  27 N27            0.2960    -3.6092    -4.4057 N.ar    
  28 C28            1.5909    -3.4155    -4.2819 C.ar    
  29 C29            2.1400    -2.9330    -3.1041 C.ar    
  30 C30            1.3099    -2.6396    -2.0360 C.ar    
  31 H31           -0.0423     5.2392     0.0305 H       
  32 H32            0.9434    -0.5334    -0.0098 H       
  33 H33           -3.3110    -0.6044     0.0376 H       
  34 H34           -3.4090     1.8322     0.0280 H       
  35 H35           -2.0075     5.5002     1.6838 H       
  36 H36           -4.1355     6.7325     1.6934 H       
  37 H37           -3.4040     3.1436    -1.6146 H       
  38 H38            3.5561     2.4822    -0.0234 H       
  39 H39            4.4192     3.9236    -0.0200 H       
  40 H40           -0.2389    -2.5472     0.5158 H       
  41 H41           -2.0184    -2.5799     0.5402 H       
  42 H42           -3.2599    -3.0610    -1.7094 H       
  43 H43           -5.5283     4.3821    -1.5891 H       
  44 H44            2.2404    -3.6375    -5.1157 H       
  45 H45            3.2062    -2.7813    -3.0226 H       
  46 H46            1.7129    -2.2625    -1.1077 H       
@<TRIPOS>BOND
   1    1    7 ar
   2    1    6 ar
   3    1    2 ar
   4    2    3 ar
   5    2   10 ar
   6    3   11 1
   7    3    4 ar
   8    4    5 ar
   9    4   31 1
  10    5   15 1
  11    5    6 ar
  12    7    8 ar
  13    7   32 1
  14    8    9 ar
  15    8   18 1
  16    9   10 ar
  17    9   33 1
  18   10   34 1
  19   11   12 ar
  20   11   14 ar
  21   12   13 ar
  22   12   35 1
  23   13   24 ar
  24   13   36 1
  25   14   25 ar
  26   14   37 1
  27   15   16 am
  28   15   17 2
  29   16   38 1
  30   16   39 1
  31   18   19 1
  32   18   40 1
  33   18   41 1
  34   19   20 1
  35   19   23 1
  36   20   21 2
  37   20   42 1
  38   21   22 1
  39   22   23 ar
  40   22   27 ar
  41   23   30 ar
  42   24   25 ar
  43   24   26 1
  44   25   43 1
  45   27   28 ar
  46   28   29 ar
  47   28   44 1
  48   29   30 ar
  49   29   45 1
  50   30   46 1

#	End of record

