#	Name: ASD01190125
#	Creating user name:	WinNT
#	Creation time:	15. 06. 2019 19:07

#	Modifying user name:	WinNT
#	Modification time:	15. 06. 2019 19:07

#	Program:	/corina/corina34_cracker 3.40 0067  02.08.2006

@<TRIPOS>MOLECULE
ASD01190125
  64   69    0    0    0
SMALL
NO_CHARGES


@<TRIPOS>ATOM
   1 C1            -0.0510     1.4709    -0.6444 C.3     
   2 C2            -0.7372     1.9773     0.6258 C.3     
   3 C3             1.4136    -2.0053    -0.4360 C.2     
   4 C4             1.3121    -0.6019    -0.4957 C.2     
   5 C5             0.0818    -0.0288    -0.5799 C.2     
   6 C6            -1.0672    -0.8413    -0.6059 C.2     
   7 C7            -0.9589    -2.1834    -0.5482 C.2     
   8 N8             0.2706    -2.7792    -0.4633 N.pl3   
   9 C9             0.6741    -4.0804    -0.3923 C.2     
  10 N10            1.9912    -4.1179    -0.3247 N.2     
  11 C11            2.4807    -2.8818    -0.3538 C.2     
  12 C12           -0.2187    -5.2566    -0.3909 C.ar    
  13 C13           -1.5077    -5.1577     0.1380 C.ar    
  14 C14           -2.3370    -6.2595     0.1367 C.ar    
  15 C15           -1.8935    -7.4633    -0.3877 C.ar    
  16 C16           -0.6156    -7.5674    -0.9138 C.ar    
  17 C17            0.2204    -6.4708    -0.9236 C.ar    
  18 F18           -2.7101    -8.5396    -0.3855 F       
  19 F19            0.0289     1.6246     1.7420 F       
  20 F20           -0.8605     3.3696     0.5659 F       
  21 F21           -2.0075     1.4008     0.7311 F       
  22 N22           -2.4889     2.6926    -3.1185 N.pl3   
  23 C23           -2.0297     2.5375    -1.8389 C.2     
  24 C24           -0.8763     1.8508    -1.8468 C.2     
  25 C25           -0.5720     1.5408    -3.2458 C.ar    
  26 C26            0.4678     0.8634    -3.8858 C.ar    
  27 C27            0.4616     0.7416    -5.2466 C.ar    
  28 C28           -0.5705     1.2860    -5.9987 C.ar    
  29 C29           -1.6058     1.9586    -5.3879 C.ar    
  30 C30           -1.6201     2.0943    -4.0033 C.ar    
  31 C31           -3.7242     3.3865    -3.4910 C.3     
  32 O32           -7.1707     2.1580    -3.5009 O.3     
  33 C33           -6.6008     1.6625    -2.2778 C.3     
  34 O34           -5.1739     1.7798    -2.3524 O.3     
  35 C35           -4.8586     2.3692    -3.6300 C.3     
  36 C36           -6.1800     3.0736    -4.0268 C.3     
  37 C37           -7.1231     2.4840    -1.0975 C.3     
  38 C38           -6.9866     0.1941    -2.0888 C.3     
  39 O39            1.2466     2.0598    -0.7520 O.3     
  40 H40            2.2006     0.0117    -0.4746 H       
  41 H41           -2.0439    -0.3853    -0.6724 H       
  42 H42           -1.8495    -2.7939    -0.5692 H       
  43 H43            3.5254    -2.6104    -0.3184 H       
  44 H44           -1.8540    -4.2203     0.5475 H       
  45 H45           -3.3338    -6.1842     0.5454 H       
  46 H46           -0.2753    -8.5082    -1.3208 H       
  47 H47            1.2145    -6.5519    -1.3379 H       
  48 H48           -2.5221     2.9124    -0.9538 H       
  49 H49            1.2742     0.4376    -3.3072 H       
  50 H50            1.2663     0.2178    -5.7411 H       
  51 H51           -0.5614     1.1814    -7.0736 H       
  52 H52           -2.4040     2.3790    -5.9817 H       
  53 H53           -3.9799     4.1127    -2.7194 H       
  54 H54           -3.5795     3.9014    -4.4408 H       
  55 H55           -4.5966     1.5990    -4.3555 H       
  56 H56           -6.2656     3.1612    -5.1099 H       
  57 H57           -6.2598     4.0507    -3.5502 H       
  58 H58           -8.2064     2.3813    -1.0344 H       
  59 H59           -6.6696     2.1229    -0.1744 H       
  60 H60           -6.8654     3.5331    -1.2427 H       
  61 H61           -6.6318    -0.3873    -2.9398 H       
  62 H62           -6.5319    -0.1862    -1.1740 H       
  63 H63           -8.0710     0.1096    -2.0178 H       
  64 H64            1.7404     1.7830    -1.5360 H       
@<TRIPOS>BOND
   1    1    2 1
   2    1    5 1
   3    1   24 1
   4    1   39 1
   5    2   19 1
   6    2   20 1
   7    2   21 1
   8    3    4 1
   9    3    8 1
  10    3   11 2
  11    4    5 2
  12    4   40 1
  13    5    6 1
  14    6    7 2
  15    6   41 1
  16    7    8 1
  17    7   42 1
  18    8    9 1
  19    9   10 2
  20    9   12 1
  21   10   11 1
  22   11   43 1
  23   12   13 ar
  24   12   17 ar
  25   13   14 ar
  26   13   44 1
  27   14   15 ar
  28   14   45 1
  29   15   16 ar
  30   15   18 1
  31   16   17 ar
  32   16   46 1
  33   17   47 1
  34   22   23 1
  35   22   30 1
  36   22   31 1
  37   23   24 2
  38   23   48 1
  39   24   25 1
  40   25   26 ar
  41   25   30 ar
  42   26   27 ar
  43   26   49 1
  44   27   28 ar
  45   27   50 1
  46   28   29 ar
  47   28   51 1
  48   29   30 ar
  49   29   52 1
  50   31   35 1
  51   31   53 1
  52   31   54 1
  53   32   33 1
  54   32   36 1
  55   33   34 1
  56   33   37 1
  57   33   38 1
  58   34   35 1
  59   35   36 1
  60   35   55 1
  61   36   56 1
  62   36   57 1
  63   37   58 1
  64   37   59 1
  65   37   60 1
  66   38   61 1
  67   38   62 1
  68   38   63 1
  69   39   64 1

#	End of record

