#	Name: ASD01913588
#	Creating user name:	WinNT
#	Creation time:	15. 06. 2019 20:01

#	Modifying user name:	WinNT
#	Modification time:	15. 06. 2019 20:01

#	Program:	/corina/corina34_cracker 3.40 0067  02.08.2006

@<TRIPOS>MOLECULE
ASD01913588
  33   35    0    0    0
SMALL
NO_CHARGES


@<TRIPOS>ATOM
   1 C1            -2.9827     0.0703    -1.3176 C.ar    
   2 C2            -2.3933    -0.1638    -0.0794 C.ar    
   3 C3            -3.1041     0.1825     1.0651 C.ar    
   4 N4            -4.3067     0.7182     0.9364 N.ar    
   5 C5            -4.8313     0.9244    -0.2549 C.ar    
   6 N6            -4.1896     0.6100    -1.3622 N.ar    
   7 C7            -1.0661    -2.0680     0.1060 C.ar    
   8 C8             0.1633    -2.6891     0.3081 C.ar    
   9 C9             0.2167    -4.0680     0.4073 C.ar    
  10 N10           -0.8750    -4.7966     0.3129 N.ar    
  11 C11           -2.0688    -4.2466     0.1201 C.ar    
  12 C12           -2.2033    -2.8665     0.0108 C.ar    
  13 C13           -3.2676    -5.1109     0.0207 C.2     
  14 N14           -3.1442    -6.4489     0.1258 N.am    
  15 O15           -1.1550    -0.7170     0.0097 O.3     
  16 O16           -4.3623    -4.6136    -0.1555 O.2     
  17 C17           -4.2682    -7.2593     0.0327 C.2     
  18 S18           -5.8636    -6.6964    -0.2141 S.3     
  19 C19           -6.4639    -8.3524    -0.1832 C.2     
  20 C20           -5.4235    -9.1662     0.0073 C.2     
  21 N21           -4.2597    -8.5531     0.1146 N.2     
  22 C22           -5.5654   -10.6643     0.0883 C.3     
  23 F23           -5.4383   -11.2147    -1.1916 F       
  24 H24           -2.4608    -0.1808    -2.2291 H       
  25 H25           -2.6805     0.0160     2.0445 H       
  26 H26           -5.8154     1.3637    -0.3257 H       
  27 H27            1.0656    -2.1008     0.3864 H       
  28 H28            1.1686    -4.5536     0.5641 H       
  29 H29           -3.1745    -2.4210    -0.1463 H       
  30 H30           -2.2704    -6.8458     0.2665 H       
  31 H31           -7.4940    -8.6559    -0.2981 H       
  32 H32           -4.7878   -11.0684     0.7365 H       
  33 H33           -6.5448   -10.9150     0.4960 H       
@<TRIPOS>BOND
   1    1    2 ar
   2    1    6 ar
   3    1   24 1
   4    2    3 ar
   5    2   15 1
   6    3    4 ar
   7    3   25 1
   8    4    5 ar
   9    5    6 ar
  10    5   26 1
  11    7    8 ar
  12    7   12 ar
  13    7   15 1
  14    8    9 ar
  15    8   27 1
  16    9   10 ar
  17    9   28 1
  18   10   11 ar
  19   11   12 ar
  20   11   13 1
  21   12   29 1
  22   13   14 am
  23   13   16 2
  24   14   17 1
  25   14   30 1
  26   17   18 1
  27   17   21 2
  28   18   19 1
  29   19   20 2
  30   19   31 1
  31   20   21 1
  32   20   22 1
  33   22   23 1
  34   22   32 1
  35   22   33 1

#	End of record

