#	Name: ASD04670004
#	Creating user name:	WinNT
#	Creation time:	15. 06. 2019 20:52

#	Modifying user name:	WinNT
#	Modification time:	15. 06. 2019 20:52

#	Program:	/corina/corina34_cracker 3.40 0067  02.08.2006

@<TRIPOS>MOLECULE
ASD04670004
  33   34    0    0    0
SMALL
NO_CHARGES


@<TRIPOS>ATOM
   1 C1            -0.0164     1.3604     0.0095 C.ar    
   2 C2             0.0021    -0.0041     0.0020 C.ar    
   3 C3             1.2123    -0.6924    -0.0132 C.ar    
   4 C4             2.4137     0.0024    -0.0205 C.ar    
   5 C5             2.4112     1.3862    -0.0130 C.ar    
   6 C6             1.1868     2.0787     0.0019 C.ar    
   7 C7             1.1697     3.5435     0.0094 C.2     
   8 C8            -0.1441     4.2816     0.0254 C.3     
   9 C9             0.1139     5.7664     0.0304 C.ar    
  10 C10            0.4854     7.8004     1.2380 C.ar    
  11 C11            0.2489     6.4393     1.2307 C.ar    
  12 C12            0.2209     6.4524    -1.1653 C.ar    
  13 C13            0.4578     7.8133    -1.1633 C.ar    
  14 C14            0.5880     8.4919     0.0397 C.ar    
  15 O15            0.8207     9.8308     0.0443 O.3     
  16 C16            0.9144    10.4773    -1.2267 C.3     
  17 O17            2.2133     4.1625     0.0028 O.2     
  18 O18            1.2172    -2.0490    -0.0205 O.3     
  19 O19            3.5819     2.0705    -0.0196 O.3     
  20 H20           -0.9592     1.8871     0.0168 H       
  21 H21           -0.9277    -0.5535     0.0083 H       
  22 H22            3.3497    -0.5364    -0.0316 H       
  23 H23           -0.7209     4.0161    -0.8606 H       
  24 H24           -0.7042     4.0072     0.9193 H       
  25 H25            0.5904     8.3256     2.1758 H       
  26 H26            0.1689     5.9006     2.1633 H       
  27 H27            0.1195     5.9237    -2.1015 H       
  28 H28            0.5420     8.3486    -2.0976 H       
  29 H29            1.1014    11.5411    -1.0802 H       
  30 H30            1.7334    10.0396    -1.7975 H       
  31 H31           -0.0201    10.3443    -1.7717 H       
  32 H32            1.2101    -2.4376    -0.9060 H       
  33 H33            3.9138     2.2737    -0.9049 H       
@<TRIPOS>BOND
   1    1    2 ar
   2    1    6 ar
   3    1   20 1
   4    2    3 ar
   5    2   21 1
   6    3    4 ar
   7    3   18 1
   8    4    5 ar
   9    4   22 1
  10    5    6 ar
  11    5   19 1
  12    6    7 1
  13    7    8 1
  14    7   17 2
  15    8    9 1
  16    8   23 1
  17    8   24 1
  18    9   12 ar
  19    9   11 ar
  20   10   11 ar
  21   10   14 ar
  22   10   25 1
  23   11   26 1
  24   12   13 ar
  25   12   27 1
  26   13   14 ar
  27   13   28 1
  28   14   15 1
  29   15   16 1
  30   16   29 1
  31   16   30 1
  32   16   31 1
  33   18   32 1
  34   19   33 1

#	End of record

