#	Name: ASD03092149
#	Creating user name:	WinNT
#	Creation time:	15. 06. 2019 20:32

#	Modifying user name:	WinNT
#	Modification time:	15. 06. 2019 20:32

#	Program:	/corina/corina34_cracker 3.40 0067  02.08.2006

@<TRIPOS>MOLECULE
ASD03092149
  51   53    0    0    0
SMALL
NO_CHARGES


@<TRIPOS>ATOM
   1 N1            -0.0304     1.2341    -0.2398 N.pl3   
   2 C2            -0.0980    -0.1032     0.0166 C.2     
   3 C3            -1.4107    -0.4131     0.2306 C.2     
   4 C4            -2.1556     0.7658     0.1005 C.2     
   5 N5            -1.3310     1.7499    -0.1748 N.2     
   6 N6            -3.5438     0.8772     0.2453 N.pl3   
   7 C7            -4.1522     2.1357     0.2049 C.ar    
   8 C8            -5.4785     2.2545    -0.1894 C.ar    
   9 C9            -6.0774     3.4987    -0.2286 C.ar    
  10 C10           -5.3564     4.6267     0.1243 C.ar    
  11 C11           -3.4325     3.2682     0.5644 C.ar    
  12 C12            1.0418    -1.0458     0.0557 C.ar    
  13 C13            1.1869     1.9971    -0.5261 C.3     
  14 C14            2.2266    -0.7708    -0.6397 C.ar    
  15 C15            3.2661    -1.6731    -0.5784 C.ar    
  16 N16            3.1594    -2.7865     0.1228 N.ar    
  17 C17            2.0589    -3.0883     0.7960 C.ar    
  18 C18            0.9672    -2.2305     0.7916 C.ar    
  19 C19           -4.0336     4.5106     0.5178 C.ar    
  20 C20            1.2906     2.2457    -2.0323 C.3     
  21 N21            1.9985    -4.2744     1.5190 N.pl3   
  22 C22            0.7855    -4.6159     2.2662 C.3     
  23 C23            0.9805    -5.9616     2.9677 C.3     
  24 O24            1.1370     3.2492     0.1609 O.3     
  25 F25           -5.9439     5.8426     0.0843 F       
  26 C26            4.5439    -1.3849    -1.3235 C.3     
  27 C27           -7.5166     3.6283    -0.6563 C.3     
  28 F28           -8.0283     2.3625    -0.9614 F       
  29 F29           -8.2627     4.1949     0.3827 F       
  30 F30           -7.5949     4.4479    -1.7874 F       
  31 H31           -1.8043    -1.3925     0.4591 H       
  32 H32           -4.0834     0.0815     0.3737 H       
  33 H33           -6.0412     1.3750    -0.4654 H       
  34 H34           -2.4024     3.1776     0.8760 H       
  35 H35            2.0569     1.4329    -0.1903 H       
  36 H36            2.3237     0.1368    -1.2169 H       
  37 H37            0.0716    -2.4794     1.3414 H       
  38 H38           -3.4729     5.3919     0.7923 H       
  39 H39            0.4206     2.8100    -2.3681 H       
  40 H40            2.1964     2.8134    -2.2453 H       
  41 H41            1.3287     1.2907    -2.5563 H       
  42 H42            2.7595    -4.8758     1.5287 H       
  43 H43            0.5873    -3.8439     3.0097 H       
  44 H44           -0.0578    -4.6833     1.5788 H       
  45 H45            1.1786    -6.7336     2.2242 H       
  46 H46            1.8237    -5.8941     3.6551 H       
  47 H47            0.0779    -6.2156     3.5236 H       
  48 H48            0.3863     3.8052    -0.0889 H       
  49 H49            5.2242    -0.8304    -0.6772 H       
  50 H50            5.0103    -2.3239    -1.6217 H       
  51 H51            4.3213    -0.7920    -2.2107 H       
@<TRIPOS>BOND
   1    1    2 1
   2    1   13 1
   3    1    5 1
   4    2    3 2
   5    2   12 1
   6    3    4 1
   7    3   31 1
   8    4    5 2
   9    4    6 1
  10    6    7 1
  11    6   32 1
  12    7    8 ar
  13    7   11 ar
  14    8    9 ar
  15    8   33 1
  16    9   10 ar
  17    9   27 1
  18   10   19 ar
  19   10   25 1
  20   11   19 ar
  21   11   34 1
  22   12   14 ar
  23   12   18 ar
  24   13   20 1
  25   13   24 1
  26   13   35 1
  27   14   15 ar
  28   14   36 1
  29   15   16 ar
  30   15   26 1
  31   16   17 ar
  32   17   18 ar
  33   17   21 1
  34   18   37 1
  35   19   38 1
  36   20   39 1
  37   20   40 1
  38   20   41 1
  39   21   22 1
  40   21   42 1
  41   22   23 1
  42   22   43 1
  43   22   44 1
  44   23   45 1
  45   23   46 1
  46   23   47 1
  47   24   48 1
  48   26   49 1
  49   26   50 1
  50   26   51 1
  51   27   28 1
  52   27   29 1
  53   27   30 1

#	End of record

