#	Name: ASD01840539
#	Creating user name:	WinNT
#	Creation time:	15. 06. 2019 19:37

#	Modifying user name:	WinNT
#	Modification time:	15. 06. 2019 19:37

#	Program:	/corina/corina34_cracker 3.40 0067  02.08.2006

@<TRIPOS>MOLECULE
ASD01840539
  59   63    0    0    0
SMALL
NO_CHARGES


@<TRIPOS>ATOM
   1 C1            -1.3544     1.1492    -0.2405 C.3     
   2 C2            -0.6440    -0.1742    -0.1188 C.ar    
   3 C3             0.0236    -0.7342    -1.2173 C.ar    
   4 C4             0.2100    -0.2813    -2.6045 C.2     
   5 O5            -0.2308     0.7554    -3.0621 O.2     
   6 N6             0.9373    -1.1773    -3.2939 N.am    
   7 C7             1.3219    -1.0616    -4.7028 C.3     
   8 C8             2.6651    -0.3364    -4.8068 C.3     
   9 O9             3.6849    -1.1332    -4.2007 O.3     
  10 C10            1.2826    -2.2901    -2.4022 C.3     
  11 C11            0.6697    -1.9631    -1.0619 C.ar    
  12 N12            0.6545    -2.5885     0.0934 N.ar    
  13 C13            0.0297    -2.0806     1.1485 C.ar    
  14 N14            0.0398    -2.7740     2.3470 N.3     
  15 C15            1.2146    -2.4189     3.1498 C.3     
  16 C16            1.1711    -3.2055     4.4649 C.3     
  17 C17            1.5286    -4.6636     4.1668 C.3     
  18 O18            1.3410    -5.4492     5.3456 O.3     
  19 C19            2.5007    -5.5374     6.1759 C.3     
  20 C20            2.1861    -6.3973     7.4017 C.3     
  21 C21            0.7576    -6.2845     7.9379 C.3     
  22 C22            2.8741    -7.7600     7.5041 C.3     
  23 C23            3.3077    -6.6135     8.4197 C.3     
  24 C24            0.6348    -5.1982     3.0546 C.3     
  25 C25           -0.8744    -5.0114     3.1506 C.3     
  26 C26           -0.0585    -4.2179     2.1191 C.3     
  27 C27           -0.6303    -0.8559     1.0688 C.ar    
  28 C28           -1.3287    -0.2892     2.2779 C.3     
  29 H29           -0.6626     1.9564     0.0004 H       
  30 H30           -1.7175     1.2742    -1.2606 H       
  31 H31           -2.1968     1.1743     0.4507 H       
  32 H32            1.4118    -2.0569    -5.1378 H       
  33 H33            0.5614    -0.4967    -5.2419 H       
  34 H34            2.9087    -0.1714    -5.8563 H       
  35 H35            2.6007     0.6231    -4.2936 H       
  36 H36            4.5652    -0.7342    -4.2301 H       
  37 H37            0.8669    -3.2214    -2.7870 H       
  38 H38            2.3654    -2.3731    -2.3087 H       
  39 H39            2.1219    -2.6732     2.6018 H       
  40 H40            1.2018    -1.3500     3.3630 H       
  41 H41            1.8921    -2.7869     5.1671 H       
  42 H42            0.1694    -3.1529     4.8913 H       
  43 H43            2.5708    -4.7242     3.8531 H       
  44 H44            3.3166    -5.9913     5.6134 H       
  45 H45            2.7935    -4.5382     6.4985 H       
  46 H46            0.0684    -6.1350     7.1068 H       
  47 H47            0.4949    -7.2002     8.4675 H       
  48 H48            0.6918    -5.4379     8.6213 H       
  49 H49            2.3089    -8.5766     7.9534 H       
  50 H50            3.5508    -8.0440     6.6982 H       
  51 H51            4.2697    -6.1432     8.2161 H       
  52 H52            3.0278    -6.6758     9.4713 H       
  53 H53            0.9690    -6.1353     2.6094 H       
  54 H54           -1.5065    -5.8184     2.7801 H       
  55 H55           -1.2610    -4.4683     4.0129 H       
  56 H56           -0.1758    -4.5195     1.0783 H       
  57 H57           -2.3836    -0.5622     2.2495 H       
  58 H58           -0.8734    -0.6921     3.1826 H       
  59 H59           -1.2343     0.7968     2.2763 H       
@<TRIPOS>BOND
   1    1    2 1
   2    1   29 1
   3    1   30 1
   4    1   31 1
   5    2   27 ar
   6    2    3 ar
   7    3   11 ar
   8    3    4 1
   9    4    5 2
  10    4    6 am
  11    6    7 1
  12    6   10 1
  13    7    8 1
  14    7   32 1
  15    7   33 1
  16    8    9 1
  17    8   34 1
  18    8   35 1
  19    9   36 1
  20   10   11 1
  21   10   37 1
  22   10   38 1
  23   11   12 ar
  24   12   13 ar
  25   13   14 1
  26   13   27 ar
  27   14   26 1
  28   14   15 1
  29   15   16 1
  30   15   39 1
  31   15   40 1
  32   16   17 1
  33   16   41 1
  34   16   42 1
  35   17   18 1
  36   17   24 1
  37   17   43 1
  38   18   19 1
  39   19   20 1
  40   19   44 1
  41   19   45 1
  42   20   23 1
  43   20   21 1
  44   20   22 1
  45   21   46 1
  46   21   47 1
  47   21   48 1
  48   22   23 1
  49   22   49 1
  50   22   50 1
  51   23   51 1
  52   23   52 1
  53   24   26 1
  54   24   25 1
  55   24   53 1
  56   25   26 1
  57   25   54 1
  58   25   55 1
  59   26   56 1
  60   27   28 1
  61   28   57 1
  62   28   58 1
  63   28   59 1

#	End of record

