#	Name: ASD01411078
#	Creating user name:	WinNT
#	Creation time:	15. 06. 2019 19:19

#	Modifying user name:	WinNT
#	Modification time:	15. 06. 2019 19:19

#	Program:	/corina/corina34_cracker 3.40 0067  02.08.2006

@<TRIPOS>MOLECULE
ASD01411078
  36   38    0    0    0
SMALL
NO_CHARGES


@<TRIPOS>ATOM
   1 C1            -0.5672     1.6687     0.5221 C.2     
   2 C2            -0.7973     0.3134     0.9674 C.ar    
   3 C3             0.7718     1.8652     0.5137 C.2     
   4 C4            -1.5593     2.7338     0.1277 C.3     
   5 C5             0.4867    -0.2407     1.2090 C.ar    
   6 C6            -1.9606    -0.4382     1.1690 C.ar    
   7 C7             1.4013     3.1744     0.0992 C.3     
   8 N8             1.4089     0.7272     0.9243 N.pl3   
   9 C9            -0.8250     4.0823     0.1205 C.3     
  10 C10            0.6228    -1.5542     1.6552 C.ar    
  11 C11           -1.7952    -1.7387     1.6122 C.ar    
  12 Cl12          -3.5363     0.2295     0.8775 Cl      
  13 O13            0.4106     3.9493    -0.5876 O.3     
  14 C14            1.8812     3.9318     1.3389 C.3     
  15 C15           -0.5418    -2.2789     1.8476 C.ar    
  16 Cl16           2.1838    -2.2515     1.9562 Cl      
  17 C17            2.9593     3.1356     2.0280 C.2     
  18 H18            2.3701     0.6224     1.0016 H       
  19 O19            3.3924     2.1323     1.5125 O.2     
  20 O20            3.4384     3.5410     3.2146 O.3     
  21 H21            4.1292     2.9977     3.6179 H       
  22 C22            3.3101     4.2206    -1.1274 C.3     
  23 C23            2.5852     2.9060    -0.8322 C.3     
  24 H24           -1.9518     2.5222    -0.8670 H       
  25 H25           -2.3761     2.7623     0.8489 H       
  26 H26           -1.4467     4.8320    -0.3690 H       
  27 H27           -0.6227     4.3913     1.1460 H       
  28 H28           -2.6694    -2.3504     1.7798 H       
  29 H29            2.2801     4.9013     1.0405 H       
  30 H30            1.0445     4.0779     2.0220 H       
  31 H31           -0.4700    -3.2998     2.1928 H       
  32 H32            4.0748     4.0515    -1.8855 H       
  33 H33            2.5936     4.9567    -1.4919 H       
  34 H34            3.7783     4.5901    -0.2151 H       
  35 H35            3.2743     2.2108    -0.3527 H       
  36 H36            2.2230     2.4734    -1.7648 H       
@<TRIPOS>BOND
   1    1    2 1
   2    1    3 2
   3    1    4 1
   4    2    5 ar
   5    2    6 ar
   6    3    7 1
   7    3    8 1
   8    4    9 1
   9    4   24 1
  10    4   25 1
  11    5   10 ar
  12    5    8 1
  13    6   11 ar
  14    6   12 1
  15    7   14 1
  16    7   23 1
  17    7   13 1
  18    8   18 1
  19    9   13 1
  20    9   26 1
  21    9   27 1
  22   10   15 ar
  23   10   16 1
  24   11   15 ar
  25   11   28 1
  26   14   17 1
  27   14   29 1
  28   14   30 1
  29   15   31 1
  30   17   19 2
  31   17   20 1
  32   20   21 1
  33   22   23 1
  34   22   32 1
  35   22   33 1
  36   22   34 1
  37   23   35 1
  38   23   36 1

#	End of record

