#	Name: ASD03082258
#	Creating user name:	WinNT
#	Creation time:	15. 06. 2019 20:27

#	Modifying user name:	WinNT
#	Modification time:	15. 06. 2019 20:27

#	Program:	/corina/corina34_cracker 3.40 0067  02.08.2006

@<TRIPOS>MOLECULE
ASD03082258
  52   54    0    0    0
SMALL
NO_CHARGES


@<TRIPOS>ATOM
   1 N1             0.0252     1.4331    -0.1381 N.pl3   
   2 N2            -0.0166     0.0300    -0.1775 N.2     
   3 C3             1.2050    -0.3956     0.0508 C.2     
   4 N4             2.0055     0.6559     0.2300 N.2     
   5 C5             1.3089     1.7691     0.1192 C.2     
   6 N6             1.6015    -1.7334     0.0981 N.pl3   
   7 C7             2.9566    -2.0574     0.2328 C.ar    
   8 C8             3.3282    -3.2708     0.7975 C.ar    
   9 C9             4.6651    -3.5896     0.9300 C.ar    
  10 C10            5.6371    -2.6983     0.4993 C.ar    
  11 C11            5.2670    -1.4866    -0.0647 C.ar    
  12 C12            3.9301    -1.1685    -0.2033 C.ar    
  13 C13            5.0685    -4.9058     1.5431 C.3     
  14 F14            3.9225    -5.6263     1.8964 F       
  15 F15            5.8153    -5.6421     0.6173 F       
  16 F16            5.8420    -4.6708     2.6849 F       
  17 C17            3.6586     4.7007     0.2536 C.ar    
  18 C18            3.2077     3.4035     0.1223 C.ar    
  19 C19            1.8388     3.1446     0.2526 C.ar    
  20 C20            0.9850     4.2218     0.5118 C.ar    
  21 C21            1.5216     5.4880     0.6281 C.ar    
  22 N22            2.8188     5.6883     0.4982 N.ar    
  23 C23            5.1312     4.9926     0.1219 C.3     
  24 C24           -1.0985     2.3508    -0.3417 C.3     
  25 C25           -1.7825     2.6076     0.9763 C.2     
  26 N26           -2.8506     3.4277     1.0327 N.am    
  27 O27           -1.3719     2.0764     1.9863 O.2     
  28 C28           -3.5156     3.6773     2.3140 C.3     
  29 C29           -3.3467     4.0694    -0.1873 C.3     
  30 O30            6.9536    -3.0129     0.6306 O.3     
  31 C31            7.9005    -2.0488     0.1660 C.3     
  32 H32            0.9380    -2.4383     0.0376 H       
  33 H33            2.5716    -3.9646     1.1332 H       
  34 H34            6.0244    -0.7933    -0.3997 H       
  35 H35            3.6421    -0.2269    -0.6468 H       
  36 H36            3.9008     2.5999    -0.0782 H       
  37 H37           -0.0782     4.0651     0.6189 H       
  38 H38            0.8705     6.3262     0.8278 H       
  39 H39            5.3673     5.2066    -0.9205 H       
  40 H40            5.3869     5.8554     0.7369 H       
  41 H41            5.7043     4.1270     0.4540 H       
  42 H42           -0.7296     3.2921    -0.7491 H       
  43 H43           -1.8086     1.9066    -1.0391 H       
  44 H44           -3.0576     4.5392     2.7992 H       
  45 H45           -4.5732     3.8769     2.1416 H       
  46 H46           -3.4109     2.8015     2.9544 H       
  47 H47           -2.7301     3.7664    -1.0336 H       
  48 H48           -4.3790     3.7668    -0.3630 H       
  49 H49           -3.2999     5.1523    -0.0730 H       
  50 H50            7.7464    -1.8719    -0.8985 H       
  51 H51            7.7665    -1.1153     0.7126 H       
  52 H52            8.9109    -2.4237     0.3295 H       
@<TRIPOS>BOND
   1    1    2 1
   2    1    5 1
   3    1   24 1
   4    2    3 2
   5    3    4 1
   6    3    6 1
   7    4    5 2
   8    5   19 1
   9    6    7 1
  10    6   32 1
  11    7    8 ar
  12    7   12 ar
  13    8    9 ar
  14    8   33 1
  15    9   10 ar
  16    9   13 1
  17   10   11 ar
  18   10   30 1
  19   11   12 ar
  20   11   34 1
  21   12   35 1
  22   13   14 1
  23   13   15 1
  24   13   16 1
  25   17   18 ar
  26   17   22 ar
  27   17   23 1
  28   18   19 ar
  29   18   36 1
  30   19   20 ar
  31   20   21 ar
  32   20   37 1
  33   21   22 ar
  34   21   38 1
  35   23   39 1
  36   23   40 1
  37   23   41 1
  38   24   25 1
  39   24   42 1
  40   24   43 1
  41   25   26 am
  42   25   27 2
  43   26   28 1
  44   26   29 1
  45   28   44 1
  46   28   45 1
  47   28   46 1
  48   29   47 1
  49   29   48 1
  50   29   49 1
  51   30   31 1
  52   31   50 1
  53   31   51 1
  54   31   52 1

#	End of record

