#	Name: ASD02198347
#	Creating user name:	WinNT
#	Creation time:	15. 06. 2019 20:19

#	Modifying user name:	WinNT
#	Modification time:	15. 06. 2019 20:19

#	Program:	/corina/corina34_cracker 3.40 0067  02.08.2006

@<TRIPOS>MOLECULE
ASD02198347
  37   39    0    0    0
SMALL
NO_CHARGES


@<TRIPOS>ATOM
   1 C1            -0.0286     1.3697     0.1329 C.2     
   2 C2            -0.0216    -0.0130     0.1439 C.2     
   3 S3             1.6404     1.9147     0.2783 S.3     
   4 C4             2.1816     0.2952     0.3389 C.2     
   5 N5             1.1792    -0.5315     0.2553 N.2     
   6 N6            -1.1724    -0.7784     0.0465 N.pl3   
   7 C7            -1.1641     2.1934     0.0197 C.2     
   8 C8            -1.0277     3.6619     0.1387 C.ar    
   9 O9            -2.2605     1.6968    -0.1764 O.2     
  10 N10            3.4990    -0.0842     0.4590 N.pl3   
  11 C11           -0.5059     4.4060    -0.9215 C.ar    
  12 C12           -1.4253     4.3103     1.3090 C.ar    
  13 C13           -1.2956     5.6793     1.4137 C.ar    
  14 C14           -0.7728     6.4111     0.3616 C.ar    
  15 C15           -0.3814     5.7768    -0.8031 C.ar    
  16 C16            3.8510    -1.5056     0.5013 C.3     
  17 C17            5.2983    -1.7048     0.0182 C.3     
  18 C18            6.0729    -2.3338     1.1946 C.3     
  19 C19            4.9769    -3.0191     2.0480 C.3     
  20 C20            3.7966    -2.0205     1.9544 C.3     
  21 Cl21          -0.0143     3.6106    -2.3842 Cl      
  22 H22           -2.0370    -0.3461    -0.0342 H       
  23 H23           -1.1135    -1.7465     0.0590 H       
  24 H24            4.1944     0.5896     0.5157 H       
  25 H25           -1.8341     3.7411     2.1307 H       
  26 H26           -1.6030     6.1818     2.3189 H       
  27 H27           -0.6742     7.4831     0.4490 H       
  28 H28            0.0260     6.3535    -1.6203 H       
  29 H29            3.1664    -2.0783    -0.1244 H       
  30 H30            5.3161    -2.3748    -0.8414 H       
  31 H31            5.7388    -0.7439    -0.2477 H       
  32 H32            6.7886    -3.0705     0.8297 H       
  33 H33            6.5802    -1.5619     1.7735 H       
  34 H34            4.7017    -3.9835     1.6211 H       
  35 H35            5.3061    -3.1324     3.0809 H       
  36 H36            3.9362    -1.1981     2.6560 H       
  37 H37            2.8511    -2.5286     2.1440 H       
@<TRIPOS>BOND
   1    1    2 2
   2    1    3 1
   3    1    7 1
   4    2    6 1
   5    2    5 1
   6    3    4 1
   7    4    5 2
   8    4   10 1
   9    6   22 1
  10    6   23 1
  11    7    8 1
  12    7    9 2
  13    8   11 ar
  14    8   12 ar
  15   10   16 1
  16   10   24 1
  17   11   21 1
  18   11   15 ar
  19   12   13 ar
  20   12   25 1
  21   13   14 ar
  22   13   26 1
  23   14   15 ar
  24   14   27 1
  25   15   28 1
  26   16   17 1
  27   16   20 1
  28   16   29 1
  29   17   18 1
  30   17   30 1
  31   17   31 1
  32   18   19 1
  33   18   32 1
  34   18   33 1
  35   19   20 1
  36   19   34 1
  37   19   35 1
  38   20   36 1
  39   20   37 1

#	End of record

