#	Name: ASD01122005
#	Creating user name:	WinNT
#	Creation time:	15. 06. 2019 18:59

#	Modifying user name:	WinNT
#	Modification time:	15. 06. 2019 18:59

#	Program:	/corina/corina34_cracker 3.40 0067  02.08.2006

@<TRIPOS>MOLECULE
ASD01122005
  34   35    0    0    0
SMALL
NO_CHARGES


@<TRIPOS>ATOM
   1 C1            -0.0161     1.3377     0.0094 C.2     
   2 O2             0.0021    -0.0041     0.0020 O.3     
   3 C3            -1.2754    -0.4414     0.0119 C.2     
   4 C4            -2.0724     0.6552     0.0253 C.2     
   5 N5            -1.2594     1.7469     0.0292 N.2     
   6 N6             1.0972     2.1550     0.0032 N.pl3   
   7 C7            -3.5506     0.6637     0.0395 C.2     
   8 C8            -4.3370     1.5665     0.6833 C.2     
   9 C9            -5.6735     1.1959     0.4282 C.2     
  10 C10           -5.6365     0.0974    -0.3500 C.2     
  11 O11           -4.3520    -0.2183    -0.5879 O.3     
  12 C12           -1.7297    -1.8783     0.0077 C.3     
  13 C13           -1.8969    -2.3562    -1.4361 C.3     
  14 C14           -0.5348    -2.3603    -2.1329 C.3     
  15 C15           -2.4765    -3.7721    -1.4408 C.3     
  16 P16           -7.0807    -0.8021    -0.9790 P.3     
  17 O17           -7.8360     0.0663    -1.9095 O.2     
  18 O18           -6.5924    -2.1248    -1.7563 O.3     
  19 O19           -8.0292    -1.2226     0.2521 O.3     
  20 H20            1.9852     1.7648    -0.0074 H       
  21 H21            0.9911     3.1192     0.0093 H       
  22 H22           -4.0028     2.4053     1.2758 H       
  23 H23           -6.5591     1.6979     0.7890 H       
  24 H24           -0.9859    -2.4960     0.5110 H       
  25 H25           -2.6830    -1.9595     0.5300 H       
  26 H26           -2.5735    -1.6849    -1.9649 H       
  27 H27           -0.6539    -2.7008    -3.1615 H       
  28 H28           -0.1219    -1.3516    -2.1296 H       
  29 H29            0.1418    -3.0316    -1.6041 H       
  30 H30           -3.4468    -3.7692    -0.9443 H       
  31 H31           -2.5956    -4.1126    -2.4694 H       
  32 H32           -1.7998    -4.4434    -0.9119 H       
  33 H33           -6.0896    -2.7411    -1.2064 H       
  34 H34           -8.8228    -1.7084    -0.0109 H       
@<TRIPOS>BOND
   1    1    2 1
   2    1    6 1
   3    1    5 2
   4    2    3 1
   5    3    4 2
   6    3   12 1
   7    4    5 1
   8    4    7 1
   9    6   20 1
  10    6   21 1
  11    7    8 2
  12    7   11 1
  13    8    9 1
  14    8   22 1
  15    9   10 2
  16    9   23 1
  17   10   11 1
  18   10   16 1
  19   12   13 1
  20   12   24 1
  21   12   25 1
  22   13   14 1
  23   13   15 1
  24   13   26 1
  25   14   27 1
  26   14   28 1
  27   14   29 1
  28   15   30 1
  29   15   31 1
  30   15   32 1
  31   16   17 2
  32   16   18 1
  33   16   19 1
  34   18   33 1
  35   19   34 1

#	End of record

