#	Name: ASD01140262
#	Creating user name:	WinNT
#	Creation time:	15. 06. 2019 19:00

#	Modifying user name:	WinNT
#	Modification time:	15. 06. 2019 19:00

#	Program:	/corina/corina34_cracker 3.40 0067  02.08.2006

@<TRIPOS>MOLECULE
ASD01140262
  78   86    0    0    0
SMALL
NO_CHARGES


@<TRIPOS>ATOM
   1 C1             0.4255     1.2086    -1.2120 C.ar    
   2 C2             0.7341     0.6795    -2.4548 C.ar    
   3 C3             1.9939     0.8462    -2.9829 C.ar    
   4 C4             2.9785     1.5522    -2.2718 C.ar    
   5 C5             2.6644     2.0736    -1.0169 C.ar    
   6 C6             1.3822     1.8993    -0.4993 C.ar    
   7 C7             4.2911     1.7116    -2.9103 C.2     
   8 N8             5.4637     1.6351    -2.2728 N.am    
   9 C9             5.6472     1.4020    -0.8299 C.3     
  10 C10            4.9124     2.4912    -0.0962 C.2     
  11 N11            3.5870     2.7630    -0.2277 N.pl3   
  12 Br12          -0.5782    -0.2739    -3.4269 Br      
  13 C13            3.3142     3.8319     0.5738 C.2     
  14 O14            4.3132     1.9288    -4.1063 O.2     
  15 C15            5.4214     3.3767     0.8004 C.2     
  16 N16            4.4042     4.1905     1.1887 N.2     
  17 C17            6.8176     3.4420     1.2661 C.2     
  18 N18            7.6341     4.4141     0.8137 N.am    
  19 O19            7.2333     2.6186     2.0589 O.2     
  20 N20            9.5351     5.4488    -0.8556 N.am    
  21 C21           10.3516     6.4210    -1.3081 C.2     
  22 C22            9.9226     7.2841    -2.4222 C.2     
  23 O23           11.4427     6.5856    -0.7966 O.2     
  24 N24            9.8704     6.9375    -3.7356 N.2     
  25 C25            9.5001     8.5722    -2.3262 C.2     
  26 N26            9.2133     9.0011    -3.5836 N.pl3   
  27 C27            9.4467     7.9555    -4.4276 C.2     
  28 C28            9.3497     9.3996    -1.0783 C.3     
  29 N29            7.9473     9.8421    -1.0009 N.am    
  30 C30            7.2944    10.5453    -1.9319 C.2     
  31 C31            7.8852    11.0246    -3.1882 C.ar    
  32 C32            8.7740    10.2725    -3.9554 C.ar    
  33 C33            7.5227    12.3089    -3.6263 C.ar    
  34 C34            8.0282    12.8151    -4.8020 C.ar    
  35 C35            8.9007    12.0574    -5.5665 C.ar    
  36 C36            9.2691    10.7979    -5.1479 C.ar    
  37 Br37           7.5316    14.5475    -5.3747 Br      
  38 C38            7.3704     9.3521     0.2657 C.3     
  39 O39            6.1256    10.8069    -1.7233 O.2     
  40 C40            6.7917     1.8000    -2.8940 C.3     
  41 C41            7.7884     1.1386    -1.9112 C.3     
  42 C42            7.1569     1.4951    -0.5386 C.3     
  43 C43            9.6283     8.5359     0.1661 C.3     
  44 C44            8.5829     9.0654     1.1846 C.3     
  45 C45            8.9946     4.5582     1.3505 C.3     
  46 C46            9.9891     4.5143     0.1837 C.3     
  47 C47            7.1821     5.3452    -0.2297 C.3     
  48 C48            8.1804     5.2996    -1.3931 C.3     
  49 H49           -0.5664     1.0837    -0.8033 H       
  50 H50            2.2276     0.4305    -3.9519 H       
  51 H51            1.1357     2.3094     0.4690 H       
  52 H52            5.2548     0.4244    -0.5500 H       
  53 H53            2.3492     4.3049     0.6812 H       
  54 H54            9.3030     7.9698    -5.4979 H       
  55 H55           10.0176    10.2604    -1.1120 H       
  56 H56            6.8421    12.9042    -3.0357 H       
  57 H57            9.2918    12.4545    -6.4916 H       
  58 H58            9.9492    10.2121    -5.7484 H       
  59 H59            6.7321    10.1157     0.7102 H       
  60 H60            6.8027     8.4378     0.0934 H       
  61 H61            6.8222     1.2953    -3.8596 H       
  62 H62            7.0244     2.8582    -3.0126 H       
  63 H63            7.8223     0.0589    -2.0570 H       
  64 H64            8.7821     1.5758    -2.0094 H       
  65 H65            7.4313     2.5061    -0.2375 H       
  66 H66            7.4496     0.7709     0.2217 H       
  67 H67            9.4589     7.4809    -0.0492 H       
  68 H68           10.6420     8.6995     0.5317 H       
  69 H69            8.9336     9.9788     1.6651 H       
  70 H70            8.3398     8.3044     1.9261 H       
  71 H71            9.0834     5.5117     1.8711 H       
  72 H72            9.2040     3.7409     2.0406 H       
  73 H73           10.0295     3.5045    -0.2247 H       
  74 H74           10.9779     4.8095     0.5346 H       
  75 H75            6.1948     5.0475    -0.5829 H       
  76 H76            7.1389     6.3560     0.1758 H       
  77 H77            7.9685     6.1164    -2.0830 H       
  78 H78            8.0967     4.3461    -1.9146 H       
@<TRIPOS>BOND
   1    1    2 ar
   2    1    6 ar
   3    1   49 1
   4    2    3 ar
   5    2   12 1
   6    3    4 ar
   7    3   50 1
   8    4    5 ar
   9    4    7 1
  10    5    6 ar
  11    5   11 1
  12    6   51 1
  13    7    8 am
  14    7   14 2
  15    8    9 1
  16    8   40 1
  17    9   10 1
  18    9   42 1
  19    9   52 1
  20   10   11 1
  21   10   15 2
  22   11   13 1
  23   13   16 2
  24   13   53 1
  25   15   16 1
  26   15   17 1
  27   17   18 am
  28   17   19 2
  29   18   45 1
  30   18   47 1
  31   20   21 am
  32   20   46 1
  33   20   48 1
  34   21   22 1
  35   21   23 2
  36   22   24 1
  37   22   25 2
  38   24   27 2
  39   25   26 1
  40   25   28 1
  41   26   27 1
  42   26   32 1
  43   27   54 1
  44   28   29 1
  45   28   43 1
  46   28   55 1
  47   29   30 am
  48   29   38 1
  49   30   31 1
  50   30   39 2
  51   31   32 ar
  52   31   33 ar
  53   32   36 ar
  54   33   34 ar
  55   33   56 1
  56   34   35 ar
  57   34   37 1
  58   35   36 ar
  59   35   57 1
  60   36   58 1
  61   38   44 1
  62   38   59 1
  63   38   60 1
  64   40   41 1
  65   40   61 1
  66   40   62 1
  67   41   42 1
  68   41   63 1
  69   41   64 1
  70   42   65 1
  71   42   66 1
  72   43   44 1
  73   43   67 1
  74   43   68 1
  75   44   69 1
  76   44   70 1
  77   45   46 1
  78   45   71 1
  79   45   72 1
  80   46   73 1
  81   46   74 1
  82   47   48 1
  83   47   75 1
  84   47   76 1
  85   48   77 1
  86   48   78 1

#	End of record

