#	Name: ASD01350041
#	Creating user name:	WinNT
#	Creation time:	15. 06. 2019 19:16

#	Modifying user name:	WinNT
#	Modification time:	15. 06. 2019 19:16

#	Program:	/corina/corina34_cracker 3.40 0067  02.08.2006

@<TRIPOS>MOLECULE
ASD01350041
  47   50    0    0    0
SMALL
NO_CHARGES


@<TRIPOS>ATOM
   1 C1             0.0141     1.7294     0.3928 C.ar    
   2 C2            -0.0828     0.3508     0.4042 C.ar    
   3 C3             1.0580    -0.4214     0.3007 C.ar    
   4 C4             2.2993     0.1812     0.1861 C.ar    
   5 C5             2.3962     1.5604     0.1748 C.ar    
   6 C6             1.2516     2.3326     0.2781 C.ar    
   7 C7             3.6786    -0.4295     0.0610 C.3     
   8 C8             4.5782     0.7088    -0.4654 C.3     
   9 C9             3.8472     1.9702     0.0413 C.3     
  10 C10            5.9818     0.6151     0.1363 C.3     
  11 C11            6.6455    -0.6542    -0.3323 C.ar    
  12 C12            6.6193    -1.7826     0.4652 C.ar    
  13 C13            7.2275    -2.9474     0.0358 C.ar    
  14 C14            7.8628    -2.9841    -1.1925 C.ar    
  15 C15            7.8894    -1.8548    -1.9913 C.ar    
  16 C16            7.2762    -0.6912    -1.5635 C.ar    
  17 N17            3.9810     3.0624    -0.9319 N.3     
  18 Cl18           7.3085     0.7261    -2.5653 Cl      
  19 Cl19           8.6270    -4.4468    -1.7312 Cl      
  20 C20            3.3834     2.6940    -2.2217 C.3     
  21 C21            3.4106     3.9016    -3.1614 C.3     
  22 C22            4.8596     4.3551    -3.3600 C.3     
  23 C23            5.4738     4.6864    -1.9971 C.3     
  24 C24            5.3867     3.4561    -1.0911 C.3     
  25 H25           -0.8772     2.3346     0.4692 H       
  26 H26           -1.0495    -0.1224     0.4942 H       
  27 H27            0.9815    -1.4987     0.3095 H       
  28 H28            1.3266     3.4099     0.2689 H       
  29 H29            4.0308    -0.7706     1.0345 H       
  30 H30            3.6627    -1.2575    -0.6477 H       
  31 H31            4.6208     0.6969    -1.5545 H       
  32 H32            4.2449     2.2745     1.0095 H       
  33 H33            6.5724     1.4735    -0.1838 H       
  34 H34            5.9111     0.6080     1.2240 H       
  35 H35            6.1237    -1.7543     1.4244 H       
  36 H36            7.2070    -3.8288     0.6596 H       
  37 H37            8.3855    -1.8829    -2.9502 H       
  38 H38            3.9515     1.8761    -2.6648 H       
  39 H39            2.3519     2.3775    -2.0669 H       
  40 H40            2.9812     3.6235    -4.1239 H       
  41 H41            2.8312     4.7153    -2.7253 H       
  42 H42            5.4302     3.5552    -3.8319 H       
  43 H43            4.8802     5.2414    -3.9940 H       
  44 H44            6.5184     4.9690    -2.1277 H       
  45 H45            4.9268     5.5124    -1.5426 H       
  46 H46            5.8103     3.6931    -0.1151 H       
  47 H47            5.9454     2.6346    -1.5396 H       
@<TRIPOS>BOND
   1    1    2 ar
   2    1    6 ar
   3    1   25 1
   4    2    3 ar
   5    2   26 1
   6    3    4 ar
   7    3   27 1
   8    4    5 ar
   9    4    7 1
  10    5    6 ar
  11    5    9 1
  12    6   28 1
  13    7    8 1
  14    7   29 1
  15    7   30 1
  16    8    9 1
  17    8   10 1
  18    8   31 1
  19    9   17 1
  20    9   32 1
  21   10   11 1
  22   10   33 1
  23   10   34 1
  24   11   12 ar
  25   11   16 ar
  26   12   13 ar
  27   12   35 1
  28   13   14 ar
  29   13   36 1
  30   14   15 ar
  31   14   19 1
  32   15   16 ar
  33   15   37 1
  34   16   18 1
  35   17   20 1
  36   17   24 1
  37   20   21 1
  38   20   38 1
  39   20   39 1
  40   21   22 1
  41   21   40 1
  42   21   41 1
  43   22   23 1
  44   22   42 1
  45   22   43 1
  46   23   24 1
  47   23   44 1
  48   23   45 1
  49   24   46 1
  50   24   47 1

#	End of record

