#	Name: ASD01850017
#	Creating user name:	WinNT
#	Creation time:	15. 06. 2019 19:38

#	Modifying user name:	WinNT
#	Modification time:	15. 06. 2019 19:38

#	Program:	/corina/corina34_cracker 3.40 0067  02.08.2006

@<TRIPOS>MOLECULE
ASD01850017
  45   49    0    0    0
SMALL
NO_CHARGES


@<TRIPOS>ATOM
   1 Cl1            0.2471     0.3995     1.1365 Cl      
   2 C2             0.1073     2.0995     0.8140 C.ar    
   3 C3             1.2399     2.8936     0.7834 C.ar    
   4 C4             1.1279     4.2470     0.5266 C.ar    
   5 C5            -0.1155     4.8075     0.3009 C.ar    
   6 C6            -1.2476     4.0147     0.3319 C.ar    
   7 C7            -1.1362     2.6599     0.5820 C.ar    
   8 C8            -0.2370     6.2833     0.0215 C.3     
   9 N9             0.9557     6.7847    -0.6716 N.am    
  10 C10            1.8697     7.2856     0.3772 C.3     
  11 C11            1.1066     7.1051     1.7119 C.3     
  12 N12           -0.3026     7.0596     1.2844 N.am    
  13 C13           -1.5750     7.4072     1.4792 C.2     
  14 O14           -2.0476     7.7731     2.5376 O.2     
  15 C15           -2.3229     7.2793     0.2098 C.ar    
  16 C16           -1.5077     6.5852    -0.7202 C.ar    
  17 C17           -1.9641     6.3476    -1.9961 C.ar    
  18 C18           -3.2260     6.7758    -2.3720 C.ar    
  19 C19           -4.0330     7.4439    -1.4676 C.ar    
  20 C20           -3.5981     7.6913    -0.1765 C.ar    
  21 C21            1.1748     6.7873    -2.0015 C.2     
  22 O22            0.3804     6.2512    -2.7494 O.2     
  23 C23            2.3803     7.4416    -2.5502 C.ar    
  24 C24            2.5257     7.5978    -3.9299 C.ar    
  25 C25            3.6523     8.2096    -4.4379 C.ar    
  26 C26            4.6402     8.6696    -3.5822 C.ar    
  27 C27            4.5018     8.5174    -2.2087 C.ar    
  28 C28            3.3755     7.9112    -1.6901 C.ar    
  29 F29            5.4682     8.9679    -1.3791 F       
  30 F30            5.7420     9.2678    -4.0856 F       
  31 H31            2.2112     2.4559     0.9604 H       
  32 H32            2.0119     4.8669     0.5026 H       
  33 H33           -2.2187     4.4531     0.1559 H       
  34 H34           -2.0207     2.0406     0.6061 H       
  35 H35            2.7894     6.7007     0.3866 H       
  36 H36            2.0937     8.3392     0.2104 H       
  37 H37            1.3928     6.1715     2.1963 H       
  38 H38            1.2815     7.9534     2.3736 H       
  39 H39           -1.3376     5.8269    -2.7051 H       
  40 H40           -3.5816     6.5882    -3.3743 H       
  41 H41           -5.0180     7.7713    -1.7656 H       
  42 H42           -4.2380     8.2136     0.5193 H       
  43 H43            1.7570     7.2396    -4.5985 H       
  44 H44            3.7650     8.3301    -5.5053 H       
  45 H45            3.2678     7.7928    -0.6220 H       
@<TRIPOS>BOND
   1    1    2 1
   2    2    3 ar
   3    2    7 ar
   4    3    4 ar
   5    3   31 1
   6    4    5 ar
   7    4   32 1
   8    5    6 ar
   9    5    8 1
  10    6    7 ar
  11    6   33 1
  12    7   34 1
  13    8    9 1
  14    8   12 1
  15    8   16 1
  16    9   10 1
  17    9   21 am
  18   10   11 1
  19   10   35 1
  20   10   36 1
  21   11   12 1
  22   11   37 1
  23   11   38 1
  24   12   13 am
  25   13   14 2
  26   13   15 1
  27   15   16 ar
  28   15   20 ar
  29   16   17 ar
  30   17   18 ar
  31   17   39 1
  32   18   19 ar
  33   18   40 1
  34   19   20 ar
  35   19   41 1
  36   20   42 1
  37   21   22 2
  38   21   23 1
  39   23   24 ar
  40   23   28 ar
  41   24   25 ar
  42   24   43 1
  43   25   26 ar
  44   25   44 1
  45   26   27 ar
  46   26   30 1
  47   27   28 ar
  48   27   29 1
  49   28   45 1

#	End of record

