#	Name: ASD00170343
#	Creating user name:	WinNT
#	Creation time:	15. 06. 2019 18:31

#	Modifying user name:	WinNT
#	Modification time:	15. 06. 2019 18:31

#	Program:	/corina/corina34_cracker 3.40 0067  02.08.2006

@<TRIPOS>MOLECULE
ASD00170343
  36   37    0    0    0
SMALL
NO_CHARGES


@<TRIPOS>ATOM
   1 C1            -0.0185     1.5140     0.0104 C.3     
   2 C2             0.0021    -0.0041     0.0020 C.2     
   3 C3             1.0987    -0.7381    -0.2188 C.2     
   4 C4             2.4738    -0.1467    -0.4838 C.3     
   5 C5             2.3177     1.3138    -0.9145 C.3     
   6 N6             1.3772     1.9795    -0.0005 N.am    
   7 C7             0.8244    -2.1641    -0.1743 C.2     
   8 C8            -0.4852    -2.4571     0.0863 C.2     
   9 S9            -1.3947    -1.0306     0.2778 S.3     
  10 C10            1.8273    -3.1646    -0.3836 C.1     
  11 N11            2.6229    -3.9583    -0.5497 N.1     
  12 N12           -1.0012    -3.7377     0.1807 N.pl3   
  13 C13            1.7812     2.9839     0.8022 C.2     
  14 O14            2.9386     3.3532     0.7777 O.2     
  15 O15            0.9025     3.5783     1.6312 O.3     
  16 C16            1.4076     4.6529     2.4668 C.3     
  17 C17            1.9585     5.7720     1.5808 C.3     
  18 C18            0.2727     5.2010     3.3342 C.3     
  19 C19            2.5240     4.1180     3.3660 C.3     
  20 H20           -0.5375     1.8815    -0.8749 H       
  21 H21           -0.5205     1.8719     0.9093 H       
  22 H22            3.0731    -0.1964     0.4253 H       
  23 H23            2.9658    -0.7098    -1.2769 H       
  24 H24            3.2856     1.8132    -0.8702 H       
  25 H25            1.9292     1.3551    -1.9320 H       
  26 H26           -0.4203    -4.5049     0.0588 H       
  27 H27           -1.9438    -3.8682     0.3688 H       
  28 H28            1.1632     6.1531     0.9402 H       
  29 H29            2.3377     6.5787     2.2082 H       
  30 H30            2.7671     5.3815     0.9629 H       
  31 H31           -0.1198     4.4037     3.9654 H       
  32 H32            0.6519     6.0077     3.9615 H       
  33 H33           -0.5227     5.5821     2.6936 H       
  34 H34            3.3325     3.7275     2.7481 H       
  35 H35            2.9032     4.9247     3.9933 H       
  36 H36            2.1315     3.3207     3.9972 H       
@<TRIPOS>BOND
   1    1    2 1
   2    1    6 1
   3    1   20 1
   4    1   21 1
   5    2    3 2
   6    2    9 1
   7    3    4 1
   8    3    7 1
   9    4    5 1
  10    4   22 1
  11    4   23 1
  12    5    6 1
  13    5   24 1
  14    5   25 1
  15    6   13 am
  16    7    8 2
  17    7   10 1
  18    8    9 1
  19    8   12 1
  20   10   11 3
  21   12   26 1
  22   12   27 1
  23   13   14 2
  24   13   15 1
  25   15   16 1
  26   16   17 1
  27   16   19 1
  28   16   18 1
  29   17   28 1
  30   17   29 1
  31   17   30 1
  32   18   31 1
  33   18   32 1
  34   18   33 1
  35   19   34 1
  36   19   35 1
  37   19   36 1

#	End of record

