#	Name: ASD01881862
#	Creating user name:	WinNT
#	Creation time:	15. 06. 2019 19:43

#	Modifying user name:	WinNT
#	Modification time:	15. 06. 2019 19:43

#	Program:	/corina/corina34_cracker 3.40 0067  02.08.2006

@<TRIPOS>MOLECULE
ASD01881862
  42   45    0    0    0
SMALL
NO_CHARGES


@<TRIPOS>ATOM
   1 C1             0.0023     1.2183    -0.2381 C.3     
   2 C2            -0.1491    -0.2513     0.1597 C.3     
   3 C3             0.6472    -0.5181     1.4386 C.3     
   4 C4             2.1248    -0.2055     1.1939 C.3     
   5 C5             2.2762     1.2641     0.7961 C.3     
   6 C6             1.4799     1.5308    -0.4828 C.3     
   7 C7            -0.7639     1.4750    -1.4685 C.1     
   8 N8            -1.3551     1.6730    -2.4181 N.1     
   9 O9             2.8686    -0.4547     2.3884 O.3     
  10 N10            8.2034    -1.6587     2.0804 N.pl3   
  11 N11            8.3797    -1.9296     3.4454 N.2     
  12 N12            7.2618    -1.7699     4.0614 N.2     
  13 C13            6.2985    -1.3974     3.1952 C.ar    
  14 C14            6.8795    -1.3195     1.9176 C.ar    
  15 C15            4.9365    -1.1029     3.3468 C.ar    
  16 C16            4.1901    -0.7414     2.2443 C.ar    
  17 C17            4.7800    -0.6683     0.9848 C.ar    
  18 C18            6.1063    -0.9539     0.8215 C.ar    
  19 C19            9.2280    -1.7187     1.0351 C.3     
  20 C20            9.2644    -3.1264     0.4367 C.3     
  21 C21           10.1925    -3.3631    -0.7564 C.3     
  22 C22           10.5494    -3.9372     0.6161 C.3     
  23 Br23           4.1269    -1.1997     5.0530 Br      
  24 H24           -0.3753     1.8526     0.5639 H       
  25 H25           -1.2018    -0.4739     0.3341 H       
  26 H26            0.2284    -0.8856    -0.6423 H       
  27 H27            0.2697     0.1162     2.2407 H       
  28 H28            0.5394    -1.5650     1.7221 H       
  29 H29            2.5024    -0.8398     0.3919 H       
  30 H30            1.8987     1.8983     1.5981 H       
  31 H31            3.3289     1.4867     0.6217 H       
  32 H32            1.8574     0.8965    -1.2849 H       
  33 H33            1.5877     2.5778    -0.7663 H       
  34 H34            4.1842    -0.3843     0.1300 H       
  35 H35            6.5544    -0.8946    -0.1594 H       
  36 H36            8.9917    -0.9974     0.2528 H       
  37 H37           10.2008    -1.4817     1.4659 H       
  38 H38            8.3195    -3.6695     0.4549 H       
  39 H39            9.8583    -4.0622    -1.5230 H       
  40 H40           10.7771    -2.5159    -1.1151 H       
  41 H41           11.3689    -3.4678     1.1604 H       
  42 H42           10.4501    -5.0141     0.7525 H       
@<TRIPOS>BOND
   1    1    2 1
   2    1    6 1
   3    1    7 1
   4    1   24 1
   5    2    3 1
   6    2   25 1
   7    2   26 1
   8    3    4 1
   9    3   27 1
  10    3   28 1
  11    4    5 1
  12    4    9 1
  13    4   29 1
  14    5    6 1
  15    5   30 1
  16    5   31 1
  17    6   32 1
  18    6   33 1
  19    7    8 3
  20    9   16 1
  21   10   11 1
  22   10   14 1
  23   10   19 1
  24   11   12 2
  25   12   13 1
  26   13   14 ar
  27   13   15 ar
  28   14   18 ar
  29   15   16 ar
  30   15   23 1
  31   16   17 ar
  32   17   18 ar
  33   17   34 1
  34   18   35 1
  35   19   20 1
  36   19   36 1
  37   19   37 1
  38   20   21 1
  39   20   22 1
  40   20   38 1
  41   21   22 1
  42   21   39 1
  43   21   40 1
  44   22   41 1
  45   22   42 1

#	End of record

