#	Name: ASD02038887
#	Creating user name:	WinNT
#	Creation time:	15. 06. 2019 20:17

#	Modifying user name:	WinNT
#	Modification time:	15. 06. 2019 20:17

#	Program:	/corina/corina34_cracker 3.40 0067  02.08.2006

@<TRIPOS>MOLECULE
ASD02038887
  31   31    0    0    0
SMALL
NO_CHARGES


@<TRIPOS>ATOM
   1 C1            -0.0184     1.5028     0.0103 C.2     
   2 C2             0.0021    -0.0041     0.0020 C.3     
   3 C3            -0.7002    -0.5305     1.2552 C.3     
   4 O4             1.0197     2.1211     0.0037 O.2     
   5 O5            -1.1898     2.1580     0.0194 O.3     
   6 C6             1.6843    -1.6889    -0.5164 C.2     
   7 O7             0.8006    -2.3939    -0.9557 O.2     
   8 N8             1.3897    -0.4735    -0.0138 N.am    
   9 N9             3.1576    -3.6475    -0.6975 N.3     
  10 C10            3.1117    -2.1718    -0.5326 C.3     
  11 C11            3.8531    -1.6191    -1.7688 C.3     
  12 C12            4.7792    -2.7648    -2.2262 C.3     
  13 C13            4.5195    -3.9134    -1.2279 C.3     
  14 O14           -0.0945     0.0411     2.4164 O.3     
  15 C15           -1.1335     3.6089     0.0270 C.3     
  16 H16           -0.5153    -0.3696    -0.8850 H       
  17 H17           -1.7547    -0.2563     1.2231 H       
  18 H18           -0.6082    -1.6159     1.2944 H       
  19 H19            2.0965     0.0903     0.3376 H       
  20 H20            3.0159    -4.1146     0.1856 H       
  21 H21            3.6247    -1.8754     0.3823 H       
  22 H22            3.1421    -1.3696    -2.5564 H       
  23 H23            4.4412    -0.7425    -1.4969 H       
  24 H24            4.5229    -3.0776    -3.2384 H       
  25 H25            5.8219    -2.4506    -2.1789 H       
  26 H26            5.2528    -3.8895    -0.4218 H       
  27 H27            4.5471    -4.8754    -1.7397 H       
  28 H28           -0.4903    -0.2489     3.2497 H       
  29 H29           -0.6017     3.9472     0.9164 H       
  30 H30           -0.6102     3.9569    -0.8636 H       
  31 H31           -2.1463     4.0118     0.0340 H       
@<TRIPOS>BOND
   1    1    2 1
   2    1    4 2
   3    1    5 1
   4    2    3 1
   5    2    8 1
   6    2   16 1
   7    3   14 1
   8    3   17 1
   9    3   18 1
  10    5   15 1
  11    6    7 2
  12    6    8 am
  13    6   10 1
  14    8   19 1
  15    9   10 1
  16    9   13 1
  17    9   20 1
  18   10   11 1
  19   10   21 1
  20   11   12 1
  21   11   22 1
  22   11   23 1
  23   12   13 1
  24   12   24 1
  25   12   25 1
  26   13   26 1
  27   13   27 1
  28   14   28 1
  29   15   29 1
  30   15   30 1
  31   15   31 1

#	End of record

