#	Name: ASD05380311
#	Creating user name:	WinNT
#	Creation time:	15. 06. 2019 20:59

#	Modifying user name:	WinNT
#	Modification time:	15. 06. 2019 20:59

#	Program:	/corina/corina34_cracker 3.40 0067  02.08.2006

@<TRIPOS>MOLECULE
ASD05380311
  60   63    0    0    0
SMALL
NO_CHARGES


@<TRIPOS>ATOM
   1 C1            -1.3873     1.8441     0.2145 C.ar    
   2 Si2           -0.2445     0.3673     0.1641 Si      
   3 C3             0.0173    -0.1573    -1.6095 C.ar    
   4 C4             1.2184     0.1104    -2.2393 C.ar    
   5 C5             1.4122    -0.2777    -3.5518 C.ar    
   6 C6             0.4050    -0.9339    -4.2344 C.ar    
   7 C7            -0.7958    -1.2023    -3.6043 C.ar    
   8 C8            -0.9879    -0.8181    -2.2904 C.ar    
   9 C9            -0.8638     3.1235     0.2116 C.ar    
  10 C10           -2.7565     1.6576     0.2488 C.ar    
  11 C11           -3.6022     2.7504     0.2860 C.ar    
  12 C12           -3.0786     4.0298     0.2894 C.ar    
  13 C13           -1.7095     4.2163     0.2489 C.ar    
  14 O14            1.1897     0.7667     0.8303 O.3     
  15 C15           -1.0040    -1.0386     1.1218 C.3     
  16 C16           -2.1145    -1.6820     0.2888 C.3     
  17 C17            0.0701    -2.0828     1.4330 C.3     
  18 C18           -1.5916    -0.5058     2.4301 C.3     
  19 C19            1.0884     1.2971     2.1533 C.3     
  20 C20            2.4639     1.7829     2.6147 C.3     
  21 C21            2.3614     2.4732     3.9885 C.3     
  22 N22            3.3587     0.6419     2.8619 N.am    
  23 C23            3.7247     0.6492     4.1509 C.2     
  24 O24            3.2003     1.6573     4.8566 O.3     
  25 O25            4.4648    -0.1843     4.6348 O.2     
  26 C26            2.8918     3.8817     3.9130 C.ar    
  27 C27            2.0156     4.9453     3.8034 C.ar    
  28 C28            4.2543     4.1106     3.9590 C.ar    
  29 C29            4.7409     5.4026     3.8897 C.ar    
  30 C30            3.8650     6.4657     3.7739 C.ar    
  31 C31            2.5022     6.2373     3.7340 C.ar    
  32 H32            2.0053     0.6230    -1.7060 H       
  33 H33            2.3503    -0.0680    -4.0441 H       
  34 H34            0.5561    -1.2365    -5.2601 H       
  35 H35           -1.5828    -1.7147    -4.1377 H       
  36 H36           -1.9260    -1.0278    -1.7982 H       
  37 H37            0.2059     3.2692     0.1806 H       
  38 H38           -3.1656     0.6581     0.2461 H       
  39 H39           -4.6720     2.6047     0.3122 H       
  40 H40           -3.7393     4.8836     0.3182 H       
  41 H41           -1.3004     5.2159     0.2516 H       
  42 H42           -1.6765    -2.1873    -0.5721 H       
  43 H43           -2.6537    -2.4061     0.8995 H       
  44 H44           -2.8042    -0.9110    -0.0546 H       
  45 H45            0.8612    -1.6244     2.0265 H       
  46 H46           -0.3743    -2.9053     1.9934 H       
  47 H47            0.4887    -2.4624     0.5010 H       
  48 H48           -2.4286     0.1567     2.2094 H       
  49 H49           -1.9396    -1.3405     3.0387 H       
  50 H50           -0.8252     0.0461     2.9744 H       
  51 H51            0.3880     2.1323     2.1573 H       
  52 H52            0.7316     0.5205     2.8298 H       
  53 H53            2.8993     2.4584     1.8784 H       
  54 H54            1.3297     2.4728     4.3403 H       
  55 H55            3.6378    -0.0098     2.1999 H       
  56 H56            0.9510     4.7668     3.7715 H       
  57 H57            4.9386     3.2799     4.0495 H       
  58 H58            5.8053     5.5814     3.9264 H       
  59 H59            4.2451     7.4752     3.7202 H       
  60 H60            1.8178     7.0679     3.6436 H       
@<TRIPOS>BOND
   1    1    2 1
   2    1    9 ar
   3    1   10 ar
   4    2    3 1
   5    2   14 1
   6    2   15 1
   7    3    4 ar
   8    3    8 ar
   9    4    5 ar
  10    4   32 1
  11    5    6 ar
  12    5   33 1
  13    6    7 ar
  14    6   34 1
  15    7    8 ar
  16    7   35 1
  17    8   36 1
  18    9   13 ar
  19    9   37 1
  20   10   11 ar
  21   10   38 1
  22   11   12 ar
  23   11   39 1
  24   12   13 ar
  25   12   40 1
  26   13   41 1
  27   14   19 1
  28   15   16 1
  29   15   17 1
  30   15   18 1
  31   16   42 1
  32   16   43 1
  33   16   44 1
  34   17   45 1
  35   17   46 1
  36   17   47 1
  37   18   48 1
  38   18   49 1
  39   18   50 1
  40   19   20 1
  41   19   51 1
  42   19   52 1
  43   20   21 1
  44   20   22 1
  45   20   53 1
  46   21   26 1
  47   21   24 1
  48   21   54 1
  49   22   23 am
  50   22   55 1
  51   23   24 1
  52   23   25 2
  53   26   27 ar
  54   26   28 ar
  55   27   31 ar
  56   27   56 1
  57   28   29 ar
  58   28   57 1
  59   29   30 ar
  60   29   58 1
  61   30   31 ar
  62   30   59 1
  63   31   60 1

#	End of record

