#	Name: ASD00840104
#	Creating user name:	WinNT
#	Creation time:	15. 06. 2019 18:37

#	Modifying user name:	WinNT
#	Modification time:	15. 06. 2019 18:37

#	Program:	/corina/corina34_cracker 3.40 0067  02.08.2006

@<TRIPOS>MOLECULE
ASD00840104
  90   95    0    0    0
SMALL
NO_CHARGES


@<TRIPOS>ATOM
   1 N1             0.1271     1.4043     0.0806 N.3     
   2 C2            -0.3942     1.8206    -1.2288 C.3     
   3 C3             0.5284     1.2971    -2.3321 C.3     
   4 N4             0.6121    -0.1674    -2.2431 N.3     
   5 C5             1.1334    -0.5836    -0.9337 C.3     
   6 C6             0.2108    -0.0601     0.1695 C.3     
   7 N7            -2.2091     5.0540     3.1152 N.am    
   8 C8            -2.1941     3.7658     2.7348 C.2     
   9 C9            -0.8823     3.1760     3.2073 C.3     
  10 C10           -0.1899     4.3291     3.8976 C.ar    
  11 C11            1.0218     4.4419     4.5316 C.ar    
  12 C12            1.4040     5.6668     5.0893 C.ar    
  13 C13            0.5421     6.7664     4.9932 C.ar    
  14 C14           -0.6724     6.6402     4.3544 C.ar    
  15 C15           -1.0520     5.4181     3.7982 C.ar    
  16 O16           -3.0678     3.1841     2.1271 O.2     
  17 S17           -3.4595     6.0933     2.8011 S.o2    
  18 O18           -2.9113     7.4038     2.8392 O.2     
  19 O19           -4.1425     5.5692     1.6706 O.2     
  20 C20           -4.5816     5.9837     4.1552 C.ar    
  21 C21           -4.4309     6.8201     5.2458 C.ar    
  22 C22           -5.3093     6.7362     6.3087 C.ar    
  23 C23           -6.3432     5.8116     6.2812 C.ar    
  24 C24           -6.4922     4.9734     5.1858 C.ar    
  25 C25           -5.6146     5.0652     4.1229 C.ar    
  26 O26           -7.2084     5.7267     7.3258 O.3     
  27 C27           -8.2487     4.7518     7.2291 C.3     
  28 F28            0.9019     7.9536     5.5285 F       
  29 C29           -1.9380     0.9784     3.8227 C.ar    
  30 C30           -1.1286     2.0501     4.1782 C.ar    
  31 C31           -0.5513     2.0696     5.4356 C.ar    
  32 C32           -0.8052     1.0112     6.2973 C.ar    
  33 C33           -1.6197    -0.0212     5.8773 C.ar    
  34 N34           -2.1563    -0.0118     4.6717 N.ar    
  35 O35           -2.5145     0.9501     2.5949 O.3     
  36 C36           -3.3356    -0.1789     2.2895 C.3     
  37 C37           -3.8942    -0.0349     0.8725 C.3     
  38 C38            2.6662     5.7950     5.7534 C.1     
  39 N39            3.6675     5.8966     6.2803 N.1     
  40 C40           -0.0665     2.6953     2.0349 C.2     
  41 O41            1.1002     3.0119     1.9375 O.2     
  42 N42           -0.6334     1.9137     1.0946 N.am    
  43 N43            1.6933    -2.5255    -5.5679 N.3     
  44 C44            2.3988    -2.7991    -4.3094 C.3     
  45 C45            1.5980    -2.2245    -3.1387 C.3     
  46 C46            1.4299    -0.7151    -3.3336 C.3     
  47 C47            0.7360    -0.4556    -4.6737 C.3     
  48 C48            1.5619    -1.0814    -5.7999 C.3     
  49 C49            2.3616    -3.1818    -6.6996 C.3     
  50 C50            1.4732    -3.0864    -7.9415 C.3     
  51 H51           -1.3954     1.4128    -1.3681 H       
  52 H52           -0.4349     2.9089    -1.2748 H       
  53 H53            0.1281     1.5800    -3.3056 H       
  54 H54            1.5227     1.7264    -2.2087 H       
  55 H55            1.1741    -1.6719    -0.8878 H       
  56 H56            2.1346    -0.1758    -0.7945 H       
  57 H57            0.6111    -0.3431     1.1431 H       
  58 H58           -0.7835    -0.4894     0.0462 H       
  59 H59            1.6786     3.5873     4.6002 H       
  60 H60           -1.3333     7.4914     4.2835 H       
  61 H61           -3.6256     7.5395     5.2668 H       
  62 H62           -5.1910     7.3895     7.1605 H       
  63 H63           -7.2963     4.2528     5.1621 H       
  64 H64           -5.7330     4.4162     3.2678 H       
  65 H65           -7.8086     3.7594     7.1319 H       
  66 H66           -8.8662     4.7892     8.1265 H       
  67 H67           -8.8647     4.9634     6.3551 H       
  68 H68            0.0827     2.8894     5.7396 H       
  69 H69           -0.3698     0.9954     7.2856 H       
  70 H70           -1.8201    -0.8471     6.5437 H       
  71 H71           -2.7400    -1.0895     2.3545 H       
  72 H72           -4.1595    -0.2320     3.0012 H       
  73 H73           -4.4897     0.8757     0.8074 H       
  74 H74           -3.0703     0.0182     0.1608 H       
  75 H75           -4.5205    -0.8961     0.6396 H       
  76 H76           -1.5814     1.7128     1.1380 H       
  77 H77            2.5080    -3.8760    -4.1810 H       
  78 H78            3.3847    -2.3350    -4.3375 H       
  79 H79            0.6169    -2.6981    -3.1017 H       
  80 H80            2.1296    -2.4141    -2.2063 H       
  81 H81            2.4090    -0.2362    -3.3306 H       
  82 H82           -0.2586    -0.9013    -4.6608 H       
  83 H83            0.6518     0.6187    -4.8379 H       
  84 H84            2.5517    -0.6254    -5.8210 H       
  85 H85            1.0631    -0.9107    -6.7539 H       
  86 H86            3.3136    -2.6884    -6.8951 H       
  87 H87            2.5383    -4.2301    -6.4589 H       
  88 H88            1.9690    -3.5734    -8.7812 H       
  89 H89            0.5211    -3.5798    -7.7460 H       
  90 H90            1.2964    -2.0381    -8.1822 H       
@<TRIPOS>BOND
   1    1    2 1
   2    1    6 1
   3    1   42 1
   4    2    3 1
   5    2   51 1
   6    2   52 1
   7    3    4 1
   8    3   53 1
   9    3   54 1
  10    4    5 1
  11    4   46 1
  12    5    6 1
  13    5   55 1
  14    5   56 1
  15    6   57 1
  16    6   58 1
  17    7    8 am
  18    7   15 1
  19    7   17 am
  20    8    9 1
  21    8   16 2
  22    9   10 1
  23    9   30 1
  24    9   40 1
  25   10   11 ar
  26   10   15 ar
  27   11   12 ar
  28   11   59 1
  29   12   13 ar
  30   12   38 1
  31   13   14 ar
  32   13   28 1
  33   14   15 ar
  34   14   60 1
  35   17   18 2
  36   17   19 2
  37   17   20 1
  38   20   21 ar
  39   20   25 ar
  40   21   22 ar
  41   21   61 1
  42   22   23 ar
  43   22   62 1
  44   23   24 ar
  45   23   26 1
  46   24   25 ar
  47   24   63 1
  48   25   64 1
  49   26   27 1
  50   27   65 1
  51   27   66 1
  52   27   67 1
  53   29   30 ar
  54   29   34 ar
  55   29   35 1
  56   30   31 ar
  57   31   32 ar
  58   31   68 1
  59   32   33 ar
  60   32   69 1
  61   33   34 ar
  62   33   70 1
  63   35   36 1
  64   36   37 1
  65   36   71 1
  66   36   72 1
  67   37   73 1
  68   37   74 1
  69   37   75 1
  70   38   39 3
  71   40   41 2
  72   40   42 am
  73   42   76 1
  74   43   44 1
  75   43   48 1
  76   43   49 1
  77   44   45 1
  78   44   77 1
  79   44   78 1
  80   45   46 1
  81   45   79 1
  82   45   80 1
  83   46   47 1
  84   46   81 1
  85   47   48 1
  86   47   82 1
  87   47   83 1
  88   48   84 1
  89   48   85 1
  90   49   50 1
  91   49   86 1
  92   49   87 1
  93   50   88 1
  94   50   89 1
  95   50   90 1

#	End of record

