#	Name: ASD01150941
#	Creating user name:	WinNT
#	Creation time:	15. 06. 2019 19:05

#	Modifying user name:	WinNT
#	Modification time:	15. 06. 2019 19:05

#	Program:	/corina/corina34_cracker 3.40 0067  02.08.2006

@<TRIPOS>MOLECULE
ASD01150941
  43   44    0    0    0
SMALL
NO_CHARGES


@<TRIPOS>ATOM
   1 N1            -0.0167     1.3818     0.0096 N.pl3   
   2 C2             0.0021    -0.0041     0.0020 C.2     
   3 N3             1.0917    -0.7762    -0.0121 N.2     
   4 C4             0.7459    -2.0474    -0.0158 C.2     
   5 N5            -0.6113    -2.1455    -0.0039 N.pl3   
   6 C6            -1.1105    -0.8389     0.0137 C.2     
   7 C7            -2.4621    -0.4487     0.0304 C.2     
   8 O8            -3.4355    -1.3852     0.0303 O.3     
   9 O9            -2.7545     0.7337     0.0448 O.2     
  10 C10           -4.7857    -0.9176     0.0477 C.3     
  11 S11            1.8655    -3.4078    -0.0338 S.3     
  12 C12            3.4415    -2.5177    -0.0431 C.3     
  13 C13           -1.3634    -3.3271    -0.0034 C.ar    
  14 C14           -1.2991    -4.1924     1.0807 C.ar    
  15 C15           -2.0423    -5.3565     1.0784 C.ar    
  16 C16           -2.8499    -5.6608    -0.0020 C.ar    
  17 C17           -2.9161    -4.8012    -1.0832 C.ar    
  18 C18           -2.1794    -3.6329    -1.0846 C.ar    
  19 C19           -5.7398    -2.1137     0.0449 C.3     
  20 C20           -5.4822    -2.9744     1.2833 C.3     
  21 C21           -7.1854    -1.6130     0.0635 C.3     
  22 C22           -5.5058    -2.9497    -1.2149 C.3     
  23 H23            0.8166     1.8782     0.0043 H       
  24 H24           -0.8633     1.8554     0.0162 H       
  25 H25           -4.9524    -0.3220     0.9452 H       
  26 H26           -4.9692    -0.3044    -0.8345 H       
  27 H27            3.4971    -1.8865    -0.9300 H       
  28 H28            3.5133    -1.8967     0.8499 H       
  29 H29            4.2632    -3.2338    -0.0547 H       
  30 H30           -0.6682    -3.9555     1.9247 H       
  31 H31           -1.9924    -6.0300     1.9212 H       
  32 H32           -3.4298    -6.5719    -0.0016 H       
  33 H33           -3.5475    -5.0418    -1.9257 H       
  34 H34           -2.2315    -2.9620    -1.9293 H       
  35 H35           -5.6488    -2.3788     2.1808 H       
  36 H36           -6.1619    -3.8266     1.2813 H       
  37 H37           -4.4523    -3.3311     1.2700 H       
  38 H38           -7.3689    -0.9998    -0.8187 H       
  39 H39           -7.8651    -2.4651     0.0615 H       
  40 H40           -7.3521    -1.0174     0.9611 H       
  41 H41           -4.4759    -3.3064    -1.2282 H       
  42 H42           -6.1855    -3.8018    -1.2170 H       
  43 H43           -5.6893    -2.3365    -2.0972 H       
@<TRIPOS>BOND
   1    1    2 1
   2    1   23 1
   3    1   24 1
   4    2    3 1
   5    2    6 2
   6    3    4 2
   7    4    5 1
   8    4   11 1
   9    5    6 1
  10    5   13 1
  11    6    7 1
  12    7    8 1
  13    7    9 2
  14    8   10 1
  15   10   19 1
  16   10   25 1
  17   10   26 1
  18   11   12 1
  19   12   27 1
  20   12   28 1
  21   12   29 1
  22   13   14 ar
  23   13   18 ar
  24   14   15 ar
  25   14   30 1
  26   15   16 ar
  27   15   31 1
  28   16   17 ar
  29   16   32 1
  30   17   18 ar
  31   17   33 1
  32   18   34 1
  33   19   20 1
  34   19   21 1
  35   19   22 1
  36   20   35 1
  37   20   36 1
  38   20   37 1
  39   21   38 1
  40   21   39 1
  41   21   40 1
  42   22   41 1
  43   22   42 1
  44   22   43 1

#	End of record

