#	Name: ASD03200001
#	Creating user name:	WinNT
#	Creation time:	15. 06. 2019 20:33

#	Modifying user name:	WinNT
#	Modification time:	15. 06. 2019 20:33

#	Program:	/corina/corina34_cracker 3.40 0067  02.08.2006

@<TRIPOS>MOLECULE
ASD03200001
  51   55    0    0    0
SMALL
NO_CHARGES


@<TRIPOS>ATOM
   1 C1            -0.1370     1.5829     0.3256 C.ar    
   2 C2            -0.0516     0.1945     0.3867 C.ar    
   3 C3             1.0459     2.3157     0.4169 C.ar    
   4 C4             2.2566     1.6354     0.5644 C.ar    
   5 N5             2.3021     0.3228     0.6186 N.ar    
   6 C6             1.2054    -0.4203     0.5364 C.ar    
   7 N7             0.9927    -1.7792     0.5654 N.pl3   
   8 C8            -0.3370    -2.0547     0.4415 C.2     
   9 C9            -1.0370    -0.8971     0.3289 C.2     
  10 C10           -2.5021    -0.7599     0.1770 C.ar    
  11 C11           -3.2114     0.1124     1.0066 C.ar    
  12 C12           -4.5637     0.2400     0.8668 C.ar    
  13 C13           -5.2390    -0.5029    -0.1074 C.ar    
  14 C14           -4.5281    -1.3757    -0.9374 C.ar    
  15 C15           -3.1747    -1.4981    -0.7996 C.ar    
  16 C16           -6.6989    -0.3661    -0.2588 C.2     
  17 O17           -7.4750    -0.1850     0.8279 O.3     
  18 C18           -4.8328    -1.7203    -3.4057 C.3     
  19 C19           -5.2544    -2.1769    -1.9870 C.3     
  20 C20           -5.1511    -2.9631    -4.2735 C.3     
  21 C21           -4.7643    -4.1586    -3.3786 C.3     
  22 C22           -4.8300    -3.6588    -1.9248 C.3     
  23 O23           -7.2026    -0.4168    -1.3635 O.2     
  24 C24            1.0186     3.7982     0.3577 C.ar    
  25 C25            2.2046     4.5236     0.4495 C.ar    
  26 C26            2.1735     5.9023     0.3934 C.ar    
  27 C27            0.9677     6.5640     0.2466 C.ar    
  28 C28           -0.2128     5.8488     0.1553 C.ar    
  29 C29           -0.1927     4.4697     0.2041 C.ar    
  30 H30           -1.0900     2.0770     0.2067 H       
  31 H31            3.1748     2.1996     0.6351 H       
  32 H32            1.6899    -2.4469     0.6606 H       
  33 H33           -0.7683    -3.0448     0.4347 H       
  34 H34           -2.6899     0.6855     1.7589 H       
  35 H35           -5.1118     0.9140     1.5084 H       
  36 H36           -2.6256    -2.1721    -1.4405 H       
  37 H37           -8.4267    -0.1006     0.6786 H       
  38 H38           -5.4241    -0.8629    -3.7272 H       
  39 H39           -3.7678    -1.4900    -3.4368 H       
  40 H40           -6.3328    -2.0813    -1.8602 H       
  41 H41           -6.2131    -2.9966    -4.5168 H       
  42 H42           -4.5505    -2.9573    -5.1830 H       
  43 H43           -5.4690    -4.9774    -3.5241 H       
  44 H44           -3.7529    -4.4896    -3.6143 H       
  45 H45           -3.8504    -3.7471    -1.4549 H       
  46 H46           -5.5665    -4.2349    -1.3647 H       
  47 H47            3.1466     4.0080     0.5649 H       
  48 H48            3.0922     6.4656     0.4645 H       
  49 H49            0.9478     7.6429     0.2034 H       
  50 H50           -1.1516     6.3705     0.0411 H       
  51 H51           -1.1149     3.9122     0.1324 H       
@<TRIPOS>BOND
   1    1    2 ar
   2    1    3 ar
   3    1   30 1
   4    2    6 ar
   5    2    9 1
   6    3    4 ar
   7    3   24 1
   8    4    5 ar
   9    4   31 1
  10    5    6 ar
  11    6    7 1
  12    7    8 1
  13    7   32 1
  14    8    9 2
  15    8   33 1
  16    9   10 1
  17   10   11 ar
  18   10   15 ar
  19   11   12 ar
  20   11   34 1
  21   12   13 ar
  22   12   35 1
  23   13   14 ar
  24   13   16 1
  25   14   15 ar
  26   14   19 1
  27   15   36 1
  28   16   17 1
  29   16   23 2
  30   17   37 1
  31   18   19 1
  32   18   20 1
  33   18   38 1
  34   18   39 1
  35   19   22 1
  36   19   40 1
  37   20   21 1
  38   20   41 1
  39   20   42 1
  40   21   22 1
  41   21   43 1
  42   21   44 1
  43   22   45 1
  44   22   46 1
  45   24   25 ar
  46   24   29 ar
  47   25   26 ar
  48   25   47 1
  49   26   27 ar
  50   26   48 1
  51   27   28 ar
  52   27   49 1
  53   28   29 ar
  54   28   50 1
  55   29   51 1

#	End of record

