#	Name: ASD01948224
#	Creating user name:	WinNT
#	Creation time:	15. 06. 2019 20:14

#	Modifying user name:	WinNT
#	Modification time:	15. 06. 2019 20:14

#	Program:	/corina/corina34_cracker 3.40 0067  02.08.2006

@<TRIPOS>MOLECULE
ASD01948224
  44   47    0    0    0
SMALL
NO_CHARGES


@<TRIPOS>ATOM
   1 N1             0.1241     1.0569    -0.3469 N.ar    
   2 C2             0.1737    -0.2335    -0.1245 C.ar    
   3 C3             1.3572    -0.8467     0.3102 C.ar    
   4 C4             2.4942    -0.0653     0.5065 C.ar    
   5 C5             2.4046     1.3053     0.2598 C.ar    
   6 C6             1.1842     1.8398    -0.1726 C.ar    
   7 C7            -0.8488    -1.3360    -0.2366 C.3     
   8 N8            -0.1754    -2.5757     0.1546 N.am    
   9 C9             1.1010    -2.2921     0.4709 C.2     
  10 C10            2.6654     2.8009     2.6005 C.ar    
  11 C11            3.6225     2.9022     1.6003 C.ar    
  12 N12            3.5096     2.1276     0.4409 N.pl3   
  13 C13            2.7792     3.5675     3.7445 C.ar    
  14 C14            3.8449     4.4360     3.8945 C.ar    
  15 C15            4.8019     4.5401     2.9004 C.ar    
  16 C16            4.6942     3.7762     1.7533 C.ar    
  17 F17            5.6284     3.8777     0.7826 F       
  18 I18            4.0109     5.5965     5.6307 I       
  19 O19            1.9246    -3.1079     0.8356 O.2     
  20 C20            1.0740     3.2905    -0.4381 C.2     
  21 O21            2.0616     3.9963    -0.3771 O.2     
  22 N22           -0.1217     3.8299    -0.7477 N.am    
  23 O23           -0.2273     5.2189    -1.0020 O.3     
  24 C24           -1.5517     5.6530    -1.3173 C.3     
  25 C25           -1.5469     7.1617    -1.5716 C.3     
  26 O26           -0.7686     7.4461    -2.7358 O.3     
  27 C27           -2.3149    -1.0885     0.1126 C.3     
  28 C28           -1.9021    -1.3235    -1.3424 C.3     
  29 H29            3.4203    -0.5087     0.8411 H       
  30 H30           -0.5822    -3.4559     0.1814 H       
  31 H31            1.8300     2.1267     2.4827 H       
  32 H32            4.2028     2.1647    -0.2366 H       
  33 H33            2.0344     3.4886     4.5226 H       
  34 H34            5.6330     5.2193     3.0204 H       
  35 H35           -0.9099     3.2666    -0.7965 H       
  36 H36           -1.9008     5.1351    -2.2106 H       
  37 H37           -2.2163     5.4272    -0.4834 H       
  38 H38           -2.5692     7.5077    -1.7245 H       
  39 H39           -1.1149     7.6737    -0.7118 H       
  40 H40           -0.7215     8.3861    -2.9575 H       
  41 H41           -2.8540    -1.8895     0.6185 H       
  42 H42           -2.6005    -0.0760     0.3976 H       
  43 H43           -1.9162    -0.4654    -2.0145 H       
  44 H44           -2.1697    -2.2789    -1.7936 H       
@<TRIPOS>BOND
   1    1    2 ar
   2    1    6 ar
   3    2    3 ar
   4    2    7 1
   5    3    4 ar
   6    3    9 1
   7    4    5 ar
   8    4   29 1
   9    5    6 ar
  10    5   12 1
  11    6   20 1
  12    7    8 1
  13    7   27 1
  14    7   28 1
  15    8    9 am
  16    8   30 1
  17    9   19 2
  18   10   11 ar
  19   10   13 ar
  20   10   31 1
  21   11   12 1
  22   11   16 ar
  23   12   32 1
  24   13   14 ar
  25   13   33 1
  26   14   15 ar
  27   14   18 1
  28   15   16 ar
  29   15   34 1
  30   16   17 1
  31   20   21 2
  32   20   22 am
  33   22   23 1
  34   22   35 1
  35   23   24 1
  36   24   25 1
  37   24   36 1
  38   24   37 1
  39   25   26 1
  40   25   38 1
  41   25   39 1
  42   26   40 1
  43   27   28 1
  44   27   41 1
  45   27   42 1
  46   28   43 1
  47   28   44 1

#	End of record

