#	Name: ASD02038665
#	Creating user name:	WinNT
#	Creation time:	15. 06. 2019 20:17

#	Modifying user name:	WinNT
#	Modification time:	15. 06. 2019 20:17

#	Program:	/corina/corina34_cracker 3.40 0067  02.08.2006

@<TRIPOS>MOLECULE
ASD02038665
  54   56    0    0    0
SMALL
NO_CHARGES


@<TRIPOS>ATOM
   1 C1             4.6129    -1.5611     2.6934 C.ar    
   2 C2             3.5884    -1.9020     1.8317 C.ar    
   3 C3             3.2725    -3.2319     1.6233 C.ar    
   4 C4             2.1547    -3.6010     0.6824 C.3     
   5 C5             2.7415    -4.0193    -0.6673 C.3     
   6 C6             1.6067    -4.3941    -1.6226 C.3     
   7 N7             2.1723    -4.9112    -2.8759 N.3     
   8 C8             2.6698    -6.2819    -2.7026 C.3     
   9 C9             3.3799    -6.7336    -3.9808 C.3     
  10 C10            3.5421    -2.8568    -1.2576 C.3     
  11 C11            1.1916    -4.8361    -3.9663 C.3     
  12 C12            1.8576    -5.2447    -5.2822 C.3     
  13 C13            2.3976    -6.6717    -5.1537 C.3     
  14 C14            3.1181    -7.0639    -6.4452 C.3     
  15 C15            3.5418    -8.5080    -6.3654 C.ar    
  16 C16            2.6918    -9.5032    -6.8102 C.ar    
  17 C17            3.0804   -10.8278    -6.7370 C.ar    
  18 C18            4.3192   -11.1571    -6.2193 C.ar    
  19 C19            5.1695   -10.1617    -5.7754 C.ar    
  20 C20            4.7826    -8.8369    -5.8526 C.ar    
  21 O21            1.4070    -4.6868     1.2338 O.3     
  22 C22            5.3250    -2.5543     3.3500 C.ar    
  23 C23            5.0061    -3.8879     3.1392 C.ar    
  24 C24            3.9807    -4.2237     2.2765 C.ar    
  25 O25            6.3336    -2.2214     4.1978 O.3     
  26 H26            4.8622    -0.5223     2.8524 H       
  27 H27            3.0335    -1.1292     1.3206 H       
  28 H28            1.4986    -2.7419     0.5428 H       
  29 H29            3.3976    -4.8785    -0.5277 H       
  30 H30            0.9824    -5.1600    -1.1625 H       
  31 H31            1.0028    -3.5115    -1.8335 H       
  32 H32            3.3704    -6.3112    -1.8681 H       
  33 H33            1.8325    -6.9489    -2.4972 H       
  34 H34            4.2257    -6.0753    -4.1792 H       
  35 H35            3.7354    -7.7566    -3.8574 H       
  36 H36            3.8742    -3.1176    -2.2625 H       
  37 H37            2.9129    -1.9679    -1.3022 H       
  38 H38            4.4096    -2.6567    -0.6288 H       
  39 H39            0.3612    -5.5099    -3.7550 H       
  40 H40            0.8186    -3.8153    -4.0496 H       
  41 H41            1.1255    -5.2039    -6.0886 H       
  42 H42            2.6794    -4.5629    -5.5011 H       
  43 H43            1.5711    -7.3591    -4.9734 H       
  44 H44            2.4452    -6.9290    -7.2920 H       
  45 H45            3.9978    -6.4339    -6.5763 H       
  46 H46            1.7240    -9.2460    -7.2146 H       
  47 H47            2.4160   -11.6055    -7.0838 H       
  48 H48            4.6225   -12.1920    -6.1615 H       
  49 H49            6.1372   -10.4190    -5.3707 H       
  50 H50            5.4470    -8.0592    -5.5058 H       
  51 H51            1.9286    -5.4869     1.3850 H       
  52 H52            5.5592    -4.6629     3.6489 H       
  53 H53            3.7320    -5.2617     2.1121 H       
  54 H54            6.0513    -2.0934     5.1138 H       
@<TRIPOS>BOND
   1    1    2 ar
   2    1   22 ar
   3    1   26 1
   4    2    3 ar
   5    2   27 1
   6    3    4 1
   7    3   24 ar
   8    4    5 1
   9    4   21 1
  10    4   28 1
  11    5    6 1
  12    5   10 1
  13    5   29 1
  14    6    7 1
  15    6   30 1
  16    6   31 1
  17    7    8 1
  18    7   11 1
  19    8    9 1
  20    8   32 1
  21    8   33 1
  22    9   13 1
  23    9   34 1
  24    9   35 1
  25   10   36 1
  26   10   37 1
  27   10   38 1
  28   11   12 1
  29   11   39 1
  30   11   40 1
  31   12   13 1
  32   12   41 1
  33   12   42 1
  34   13   14 1
  35   13   43 1
  36   14   15 1
  37   14   44 1
  38   14   45 1
  39   15   16 ar
  40   15   20 ar
  41   16   17 ar
  42   16   46 1
  43   17   18 ar
  44   17   47 1
  45   18   19 ar
  46   18   48 1
  47   19   20 ar
  48   19   49 1
  49   20   50 1
  50   21   51 1
  51   22   23 ar
  52   22   25 1
  53   23   24 ar
  54   23   52 1
  55   24   53 1
  56   25   54 1

#	End of record

