#	Name: ASD01948296
#	Creating user name:	WinNT
#	Creation time:	15. 06. 2019 20:14

#	Modifying user name:	WinNT
#	Modification time:	15. 06. 2019 20:14

#	Program:	/corina/corina34_cracker 3.40 0067  02.08.2006

@<TRIPOS>MOLECULE
ASD01948296
  50   52    0    0    0
SMALL
NO_CHARGES


@<TRIPOS>ATOM
   1 C1             2.3491     8.2721     0.0127 C.ar    
   2 C2             2.9426     8.6488    -1.1792 C.ar    
   3 C3             3.8136     7.7893    -1.8235 C.ar    
   4 C4             4.0946     6.5507    -1.2793 C.ar    
   5 C5             3.5020     6.1684    -0.0837 C.ar    
   6 C6             2.6260     7.0346     0.5631 C.ar    
   7 N7             3.9962     3.1046    -1.0508 N.am    
   8 C8             4.5742     4.0187    -0.2204 C.2     
   9 N9             3.7843     4.9147     0.4693 N.pl3   
  10 C10            4.7473     2.2209    -1.7336 C.2     
  11 C11            6.1387     2.2245    -1.6025 C.2     
  12 C12            6.7430     3.1423    -0.7666 C.2     
  13 C13            5.9484     4.0520    -0.0657 C.2     
  14 N14            6.5419     4.9966     0.7921 N.am    
  15 I15            2.5203    10.5251    -2.0098 I       
  16 F16            2.0473     6.6669     1.7272 F       
  17 C17            2.5387     3.0801    -1.1970 C.3     
  18 S18            8.1902     5.1468     0.8447 S.o2    
  19 O19            8.5957     5.0356    -0.5126 O.2     
  20 O20            8.4098     6.3433     1.5793 O.2     
  21 C21            8.7460     3.7052     1.7953 C.3     
  22 C22            8.0551     3.4318     3.1327 C.3     
  23 C23            7.7753     2.5301     1.9288 C.3     
  24 C24           10.2377     3.3816     1.6915 C.3     
  25 C25           10.6033     3.1245     0.2283 C.3     
  26 O26           10.0091     1.8985    -0.2028 O.3     
  27 O27            4.2093     1.4099    -2.4726 O.2     
  28 C28           12.1242     3.0298     0.0916 C.3     
  29 O29           12.4716     2.9062    -1.2890 O.3     
  30 H30            1.6725     8.9472     0.5156 H       
  31 H31            4.2747     8.0866    -2.7538 H       
  32 H32            4.7744     5.8803    -1.7841 H       
  33 H33            3.4246     4.6756     1.3379 H       
  34 H34            6.7378     1.5132    -2.1517 H       
  35 H35            7.8172     3.1561    -0.6556 H       
  36 H36            5.9854     5.5598     1.3526 H       
  37 H37            2.2372     3.8044    -1.9537 H       
  38 H38            2.2208     2.0829    -1.5015 H       
  39 H39            2.0737     3.3347    -0.2446 H       
  40 H40            8.6633     3.0211     3.9386 H       
  41 H41            7.2666     4.1182     3.4415 H       
  42 H42            6.8028     2.6233     1.4455 H       
  43 H43            8.1994     1.5261     1.9426 H       
  44 H44           10.8191     4.2229     2.0689 H       
  45 H45           10.4587     2.4930     2.2828 H       
  46 H46           10.2334     3.9439    -0.3880 H       
  47 H47           10.2934     1.1246     0.3025 H       
  48 H48           12.5826     3.9293     0.5025 H       
  49 H49           12.4844     2.1572     0.6364 H       
  50 H50           13.4228     2.8413    -1.4510 H       
@<TRIPOS>BOND
   1    1    2 ar
   2    1    6 ar
   3    1   30 1
   4    2    3 ar
   5    2   15 1
   6    3    4 ar
   7    3   31 1
   8    4    5 ar
   9    4   32 1
  10    5    6 ar
  11    5    9 1
  12    6   16 1
  13    7    8 1
  14    7   10 am
  15    7   17 1
  16    8    9 1
  17    8   13 2
  18    9   33 1
  19   10   11 1
  20   10   27 2
  21   11   12 2
  22   11   34 1
  23   12   13 1
  24   12   35 1
  25   13   14 1
  26   14   18 am
  27   14   36 1
  28   17   37 1
  29   17   38 1
  30   17   39 1
  31   18   19 2
  32   18   20 2
  33   18   21 1
  34   21   22 1
  35   21   24 1
  36   21   23 1
  37   22   23 1
  38   22   40 1
  39   22   41 1
  40   23   42 1
  41   23   43 1
  42   24   25 1
  43   24   44 1
  44   24   45 1
  45   25   26 1
  46   25   28 1
  47   25   46 1
  48   26   47 1
  49   28   29 1
  50   28   48 1
  51   28   49 1
  52   29   50 1

#	End of record

