#	Name: ASD01912251
#	Creating user name:	WinNT
#	Creation time:	15. 06. 2019 19:59

#	Modifying user name:	WinNT
#	Modification time:	15. 06. 2019 19:59

#	Program:	/corina/corina34_cracker 3.40 0067  02.08.2006

@<TRIPOS>MOLECULE
ASD01912251
  45   47    0    0    0
SMALL
NO_CHARGES


@<TRIPOS>ATOM
   1 C1             0.0259    -0.0036    -0.0054 C.1     
   2 C2            -0.0058     1.4280     0.0059 C.ar    
   3 C3            -0.7796     2.1043     0.9541 C.ar    
   4 C4            -0.8075     3.4803     0.9624 C.ar    
   5 C5            -0.0670     4.1987     0.0280 C.ar    
   6 C6             0.7038     3.5288    -0.9174 C.ar    
   7 C7             0.7412     2.1526    -0.9274 C.ar    
   8 N8             0.0512    -1.1393    -0.0143 N.1     
   9 N9            -1.6263     4.1970     1.9657 N.pl3   
  10 O10           -2.3508     3.5720     2.7194 O.2     
  11 O11           -1.5756     5.4118     2.0377 O.2     
  12 N12           -0.0978     5.5902     0.0389 N.3     
  13 C13           -0.7048     6.1127    -1.1917 C.3     
  14 C14           -0.9436     7.6195    -1.0416 C.3     
  15 C15            0.3648     8.2694    -0.6427 C.2     
  16 C16            1.1377     7.6535     0.5047 C.3     
  17 C17            1.2443     6.1446     0.2563 C.3     
  18 C18            0.8208     9.3468    -1.2802 C.2     
  19 C19            2.0611     9.9422    -0.8831 C.1     
  20 C20            3.0780    10.4303    -0.5576 C.1     
  21 C21            4.3183    11.0257    -0.1605 C.ar    
  22 C22            4.7923    12.1561    -0.8328 C.ar    
  23 C23            5.9917    12.7187    -0.4368 C.ar    
  24 C24            6.6818    12.1360     0.6182 C.ar    
  25 C25            6.1560    11.0181     1.2397 C.ar    
  26 N26            5.0087    10.5027     0.8487 N.ar    
  27 C27            6.9032    10.3844     2.3847 C.3     
  28 H28           -1.3550     1.5475     1.6789 H       
  29 H29            1.2769     4.0892    -1.6412 H       
  30 H30            1.3434     1.6334    -1.6583 H       
  31 H31           -0.0347     5.9328    -2.0324 H       
  32 H32           -1.6553     5.6100    -1.3701 H       
  33 H33           -1.2857     8.0338    -1.9900 H       
  34 H34           -1.6928     7.7979    -0.2703 H       
  35 H35            2.1356     8.0897     0.5517 H       
  36 H36            0.6118     7.8356     1.4419 H       
  37 H37            1.6999     5.6648     1.1225 H       
  38 H38            1.8595     5.9637    -0.6251 H       
  39 H39            0.2549     9.7711    -2.0964 H       
  40 H40            4.2299    12.5835    -1.6498 H       
  41 H41            6.3835    13.5919    -0.9372 H       
  42 H42            7.6214    12.5523     0.9502 H       
  43 H43            6.5812    10.8360     3.3230 H       
  44 H44            6.6956     9.3145     2.4063 H       
  45 H45            7.9734    10.5442     2.2529 H       
@<TRIPOS>BOND
   1    1    2 1
   2    1    8 3
   3    2    3 ar
   4    2    7 ar
   5    3    4 ar
   6    3   28 1
   7    4    5 ar
   8    4    9 1
   9    5    6 ar
  10    5   12 1
  11    6    7 ar
  12    6   29 1
  13    7   30 1
  14    9   10 2
  15    9   11 2
  16   12   13 1
  17   12   17 1
  18   13   14 1
  19   13   31 1
  20   13   32 1
  21   14   15 1
  22   14   33 1
  23   14   34 1
  24   15   16 1
  25   15   18 2
  26   16   17 1
  27   16   35 1
  28   16   36 1
  29   17   37 1
  30   17   38 1
  31   18   19 1
  32   18   39 1
  33   19   20 3
  34   20   21 1
  35   21   22 ar
  36   21   26 ar
  37   22   23 ar
  38   22   40 1
  39   23   24 ar
  40   23   41 1
  41   24   25 ar
  42   24   42 1
  43   25   26 ar
  44   25   27 1
  45   27   43 1
  46   27   44 1
  47   27   45 1

#	End of record

