#	Name: ASD08150491
#	Creating user name:	WinNT
#	Creation time:	15. 06. 2019 21:16

#	Modifying user name:	WinNT
#	Modification time:	15. 06. 2019 21:16

#	Program:	/corina/corina34_cracker 3.40 0067  02.08.2006

@<TRIPOS>MOLECULE
ASD08150491
  40   44    0    0    0
SMALL
NO_CHARGES


@<TRIPOS>ATOM
   1 N1            -0.1271     1.1505    -0.6088 N.am    
   2 C2            -0.0875    -0.1624    -0.3096 C.2     
   3 C3             1.1336    -0.8667    -0.3034 C.2     
   4 C4             2.2930    -0.2264    -0.6005 C.2     
   5 C5             2.2551     1.1549    -0.9158 C.ar    
   6 C6             3.4284     1.8663    -1.2316 C.ar    
   7 N7             3.3906     3.1405    -1.5221 N.ar    
   8 C8             2.2453     3.8393    -1.5372 C.ar    
   9 C9             1.0161     3.2046    -1.2324 C.ar    
  10 C10            1.0228     1.8264    -0.9134 C.ar    
  11 C11           -0.1328     5.2905    -1.5666 C.ar    
  12 C12            1.0873     5.9115    -1.8680 C.ar    
  13 C13            2.2509     5.2076    -1.8545 C.ar    
  14 O14           -1.1216    -0.7494    -0.0402 O.2     
  15 C15           -1.3537     1.8263    -0.6138 C.ar    
  16 C16           -2.1040     1.8964    -1.7800 C.ar    
  17 C17           -3.3145     2.5635    -1.7824 C.ar    
  18 C18           -3.7787     3.1620    -0.6219 C.ar    
  19 C19           -3.0311     3.0927     0.5417 C.ar    
  20 C20           -1.8238     2.4225     0.5493 C.ar    
  21 Cl21          -4.2533     2.6523    -3.2399 Cl      
  22 F22           -4.9619     3.8141    -0.6259 F       
  23 C23           -0.1717     3.9422    -1.2501 C.ar    
  24 C24           -1.3882     6.0803    -1.5877 C.2     
  25 C25           -1.5324     7.3439    -2.0665 C.2     
  26 N26           -2.8450     7.6828    -1.8907 N.pl3   
  27 C27           -3.4618     6.6276    -1.3148 C.2     
  28 N28           -2.5931     5.6715    -1.1404 N.2     
  29 H29            1.1468    -1.9191    -0.0612 H       
  30 H30            3.2310    -0.7616    -0.5964 H       
  31 H31            4.3771     1.3501    -1.2336 H       
  32 H32            1.1035     6.9629    -2.1144 H       
  33 H33            3.1820     5.7022    -2.0882 H       
  34 H34           -1.7419     1.4302    -2.6844 H       
  35 H35           -3.3946     3.5597     1.4451 H       
  36 H36           -1.2414     2.3689     1.4572 H       
  37 H37           -1.1124     3.4644    -1.0191 H       
  38 H38           -0.7599     7.9608    -2.5012 H       
  39 H39           -3.2578     8.5260    -2.1346 H       
  40 H40           -4.5070     6.5819    -1.0466 H       
@<TRIPOS>BOND
   1    1    2 am
   2    1   10 1
   3    1   15 1
   4    2    3 1
   5    2   14 2
   6    3    4 2
   7    3   29 1
   8    4    5 1
   9    4   30 1
  10    5    6 ar
  11    5   10 ar
  12    6    7 ar
  13    6   31 1
  14    7    8 ar
  15    8    9 ar
  16    8   13 ar
  17    9   10 ar
  18    9   23 ar
  19   11   12 ar
  20   11   24 1
  21   11   23 ar
  22   12   13 ar
  23   12   32 1
  24   13   33 1
  25   15   16 ar
  26   15   20 ar
  27   16   17 ar
  28   16   34 1
  29   17   18 ar
  30   17   21 1
  31   18   19 ar
  32   18   22 1
  33   19   20 ar
  34   19   35 1
  35   20   36 1
  36   23   37 1
  37   24   25 2
  38   24   28 1
  39   25   26 1
  40   25   38 1
  41   26   27 1
  42   26   39 1
  43   27   28 2
  44   27   40 1

#	End of record

