#	Name: ASD02398003
#	Creating user name:	WinNT
#	Creation time:	15. 06. 2019 20:20

#	Modifying user name:	WinNT
#	Modification time:	15. 06. 2019 20:20

#	Program:	/corina/corina34_cracker 3.40 0067  02.08.2006

@<TRIPOS>MOLECULE
ASD02398003
  63   66    0    0    0
SMALL
NO_CHARGES


@<TRIPOS>ATOM
   1 C1            -0.0169     1.3942     0.0097 C.ar    
   2 C2             0.0021    -0.0041     0.0020 C.ar    
   3 C3            -1.1981    -0.7105     0.0102 C.ar    
   4 C4            -2.3984    -0.0289     0.0258 C.ar    
   5 C5            -2.4141     1.3545     0.0333 C.ar    
   6 C6            -1.2286     2.0654     0.0307 C.ar    
   7 C7            -3.6965    -0.7944     0.0341 C.3     
   8 C8            -4.1153    -1.0577     1.4576 C.2     
   9 O9            -3.4300    -0.6641     2.3716 O.2     
  10 C10            1.2946    -0.7315    -0.0152 C.ar    
  11 C11            1.6429    -1.5125    -1.1154 C.ar    
  12 C12            2.8472    -2.1869    -1.1263 C.ar    
  13 C13            3.7073    -2.0889    -0.0477 C.ar    
  14 C14            3.3665    -1.3153     1.0475 C.ar    
  15 C15            2.1679    -0.6318     1.0665 C.ar    
  16 C16            1.7983     0.2109     2.2600 C.3     
  17 C17            0.9263    -0.6092     3.2129 C.3     
  18 C18            1.7254    -1.7468     3.8107 C.2     
  19 O19            1.8214    -1.5863     5.1382 O.3     
  20 C20            0.7603    -0.7039     5.6097 C.3     
  21 C21            0.4965     0.2503     4.4226 C.3     
  22 O22           -5.2496    -1.7295     1.7101 O.3     
  23 O23            2.2050    -2.6626     3.1852 O.2     
  24 C24            0.8612     2.5629     6.0290 C.3     
  25 O25            1.1487     2.0917     0.0023 O.3     
  26 C26            1.0517     3.5174     0.0109 C.3     
  27 *27           -0.5231    -1.5254     5.9439 Du      
  28 S28            1.5211     1.7416     4.5523 S.3     
  29 C29            5.0205    -2.8280    -0.0652 C.3     
  30 F30            5.1412    -3.5361    -1.2657 F       
  31 F31            6.0725    -1.9122     0.0438 F       
  32 F32            5.0670    -3.7218     1.0101 F       
  33 C33           -1.8065    -2.3468     6.2782 C.ar    
  34 C34           -2.9376    -1.7028     6.7437 C.ar    
  35 C35           -4.0748    -2.4307     7.0400 C.ar    
  36 C36           -4.0811    -3.8025     6.8703 C.ar    
  37 C37           -2.9503    -4.4465     6.4039 C.ar    
  38 C38           -1.8144    -3.7180     6.1035 C.ar    
  39 H39           -1.1897    -1.7904     0.0039 H       
  40 H40           -3.3568     1.8813     0.0452 H       
  41 H41           -1.2472     3.1452     0.0369 H       
  42 H42           -4.4665    -0.2095    -0.4689 H       
  43 H43           -3.5624    -1.7426    -0.4865 H       
  44 H44            0.9716    -1.5903    -1.9579 H       
  45 H45            3.1182    -2.7925    -1.9784 H       
  46 H46            4.0417    -1.2429     1.8873 H       
  47 H47            2.7046     0.5259     2.7770 H       
  48 H48            1.2457     1.0895     1.9272 H       
  49 H49            0.0515    -0.9943     2.6891 H       
  50 H50            1.0921    -0.1424     6.4830 H       
  51 H51           -0.5606     0.5085     4.3595 H       
  52 H52           -5.4767    -1.8741     2.6389 H       
  53 H53            0.9697     1.9039     6.8904 H       
  54 H54            1.4111     3.4871     6.2071 H       
  55 H55           -0.1937     2.7913     5.8769 H       
  56 H56            0.5059     3.8497    -0.8721 H       
  57 H57            0.5228     3.8402     0.9077 H       
  58 H58            2.0522     3.9498     0.0037 H       
  59 H59           -2.9327    -0.6309     6.8763 H       
  60 H60           -4.9583    -1.9276     7.4044 H       
  61 H61           -4.9693    -4.3713     7.1024 H       
  62 H62           -2.9551    -5.5183     6.2716 H       
  63 H63           -0.9322    -4.2207     5.7356 H       
@<TRIPOS>BOND
   1    1    2 ar
   2    1   25 1
   3    1    6 ar
   4    2    3 ar
   5    2   10 1
   6    3    4 ar
   7    3   39 1
   8    4    5 ar
   9    4    7 1
  10    5    6 ar
  11    5   40 1
  12    6   41 1
  13    7    8 1
  14    7   42 1
  15    7   43 1
  16    8    9 2
  17    8   22 1
  18   10   11 ar
  19   10   15 ar
  20   11   12 ar
  21   11   44 1
  22   12   13 ar
  23   12   45 1
  24   13   14 ar
  25   13   29 1
  26   14   15 ar
  27   14   46 1
  28   15   16 1
  29   16   17 1
  30   16   47 1
  31   16   48 1
  32   17   18 1
  33   17   21 1
  34   17   49 1
  35   18   19 1
  36   18   23 2
  37   19   20 1
  38   20   21 1
  39   20   27 1
  40   20   50 1
  41   21   28 1
  42   21   51 1
  43   22   52 1
  44   24   28 1
  45   24   53 1
  46   24   54 1
  47   24   55 1
  48   25   26 1
  49   26   56 1
  50   26   57 1
  51   26   58 1
  52   27   33 1
  53   29   30 1
  54   29   31 1
  55   29   32 1
  56   33   34 ar
  57   33   38 ar
  58   34   35 ar
  59   34   59 1
  60   35   36 ar
  61   35   60 1
  62   36   37 ar
  63   36   61 1
  64   37   38 ar
  65   37   62 1
  66   38   63 1

#	End of record

