#	Name: ASD01884857
#	Creating user name:	WinNT
#	Creation time:	15. 06. 2019 19:49

#	Modifying user name:	WinNT
#	Modification time:	15. 06. 2019 19:49

#	Program:	/corina/corina34_cracker 3.40 0067  02.08.2006

@<TRIPOS>MOLECULE
ASD01884857
  55   60    0    0    0
SMALL
NO_CHARGES


@<TRIPOS>ATOM
   1 C1             0.5566     1.4573     0.3260 C.ar    
   2 C2             0.4202     0.1010     0.2677 C.ar    
   3 C3             1.5381    -0.7225     0.0885 C.ar    
   4 C4             2.8034    -0.1623    -0.0318 C.ar    
   5 C5             2.9471     1.2234     0.0272 C.ar    
   6 C6             1.8154     2.0409     0.2073 C.ar    
   7 C7             4.0937     2.1318    -0.0593 C.2     
   8 C8             3.6153     3.3795     0.0667 C.2     
   9 N9             2.2568     3.3447     0.2267 N.pl3   
  10 C10            1.3992     4.5207     0.3939 C.3     
  11 C11            1.3713    -2.1937     0.0275 C.2     
  12 C12            1.6146    -2.8753    -1.1498 C.2     
  13 C13            0.9667    -2.9155     1.1767 C.2     
  14 C14            0.8161    -4.2521     1.1194 C.2     
  15 N15            1.0488    -4.9329    -0.0408 N.pl3   
  16 C16            1.4477    -4.2704    -1.1766 C.2     
  17 C17            0.9785    -6.2489    -0.3838 C.2     
  18 N18            1.3112    -6.3457    -1.6451 N.2     
  19 N19            1.5910    -5.1846    -2.1238 N.2     
  20 C20            0.5888    -7.3865     0.5245 C.3     
  21 C21            1.5320     5.4271    -0.8315 C.3     
  22 C22            1.8265     5.2896     1.6458 C.3     
  23 C23            0.9309     6.5177     1.8204 C.3     
  24 C24            1.0636     7.4242     0.5950 C.3     
  25 C25            0.6364     6.6553    -0.6568 C.3     
  26 C26           -0.6344    -8.2172     0.1314 C.3     
  27 C27            0.7694    -8.8094    -0.0082 C.3     
  28 O28            0.2271     8.5712     0.7582 O.3     
  29 C29            2.0517    -2.1335    -2.3867 C.3     
  30 F30            3.4308    -1.9050    -2.3303 F       
  31 F31            1.7516    -2.8978    -3.5193 F       
  32 F32            1.3787    -0.9092    -2.4585 F       
  33 H33           -0.3151     2.0806     0.4602 H       
  34 H34           -0.5603    -0.3420     0.3612 H       
  35 H35            3.6682    -0.7944    -0.1695 H       
  36 H36            5.1272     1.8507    -0.1977 H       
  37 H37            4.2141     4.2780     0.0456 H       
  38 H38            0.3622     4.2020     0.4995 H       
  39 H39            0.7786    -2.3921     2.1024 H       
  40 H40            0.5078    -4.7924     2.0022 H       
  41 H41            0.7641    -7.2206     1.5874 H       
  42 H42            2.5690     5.7458    -0.9370 H       
  43 H43            1.2276     4.8794    -1.7233 H       
  44 H44            1.7319     4.6438     2.5188 H       
  45 H45            2.8635     5.6082     1.5402 H       
  46 H46           -0.1062     6.1991     1.9260 H       
  47 H47            1.2352     7.0655     2.7123 H       
  48 H48            2.1007     7.7428     0.4895 H       
  49 H49            0.7310     7.3010    -1.5298 H       
  50 H50           -0.4006     6.3366    -0.5512 H       
  51 H51           -1.2637    -8.5981     0.9357 H       
  52 H52           -1.1574    -7.9408    -0.7842 H       
  53 H53            1.1700    -8.9226    -1.0155 H       
  54 H54            1.0637    -9.5800     0.7044 H       
  55 H55            0.2610     9.1913     0.0170 H       
@<TRIPOS>BOND
   1    1    2 ar
   2    1    6 ar
   3    1   33 1
   4    2    3 ar
   5    2   34 1
   6    3    4 ar
   7    3   11 1
   8    4    5 ar
   9    4   35 1
  10    5    6 ar
  11    5    7 1
  12    6    9 1
  13    7    8 2
  14    7   36 1
  15    8    9 1
  16    8   37 1
  17    9   10 1
  18   10   21 1
  19   10   22 1
  20   10   38 1
  21   11   12 2
  22   11   13 1
  23   12   29 1
  24   12   16 1
  25   13   14 2
  26   13   39 1
  27   14   15 1
  28   14   40 1
  29   15   16 1
  30   15   17 1
  31   16   19 2
  32   17   18 2
  33   17   20 1
  34   18   19 1
  35   20   26 1
  36   20   27 1
  37   20   41 1
  38   21   25 1
  39   21   42 1
  40   21   43 1
  41   22   23 1
  42   22   44 1
  43   22   45 1
  44   23   24 1
  45   23   46 1
  46   23   47 1
  47   24   25 1
  48   24   28 1
  49   24   48 1
  50   25   49 1
  51   25   50 1
  52   26   27 1
  53   26   51 1
  54   26   52 1
  55   27   53 1
  56   27   54 1
  57   28   55 1
  58   29   30 1
  59   29   31 1
  60   29   32 1

#	End of record

