#	Name: ASD01180150
#	Creating user name:	WinNT
#	Creation time:	15. 06. 2019 19:06

#	Modifying user name:	WinNT
#	Modification time:	15. 06. 2019 19:06

#	Program:	/corina/corina34_cracker 3.40 0067  02.08.2006

@<TRIPOS>MOLECULE
ASD01180150
  67   70    0    0    0
SMALL
NO_CHARGES


@<TRIPOS>ATOM
   1 C1             0.7488     1.4195     0.7515 C.2     
   2 C2             0.6692    -0.0819     0.6492 C.3     
   3 C3             2.0783    -0.6580     0.4957 C.3     
   4 O4             1.8224     1.9721     0.7063 O.2     
   5 O5            -0.3733     2.1434     0.8873 O.3     
   6 C6             3.1272    -2.8440     0.2543 C.2     
   7 C7             3.0491    -4.3170     0.1539 C.ar    
   8 C8             4.2136    -5.0723     0.0069 C.ar    
   9 C9             4.1338    -6.4464    -0.0857 C.ar    
  10 C10            2.9028    -7.0760    -0.0336 C.ar    
  11 C11            1.7447    -6.3332     0.1120 C.ar    
  12 C12            1.8110    -4.9588     0.2116 C.ar    
  13 O13            4.2072    -2.2882     0.2088 O.2     
  14 N14            2.0009    -2.1176     0.3962 N.am    
  15 C15            2.8232    -8.5774    -0.1364 C.3     
  16 N16            1.8143    -9.0781     0.8004 N.pl3   
  17 N17            3.7872    -9.2125     3.8444 N.ar    
  18 C18            3.4336    -8.9901     2.6033 C.ar    
  19 C19            2.1598    -9.3295     2.1303 C.ar    
  20 C20            1.2467    -9.9139     2.9868 C.ar    
  21 C21            1.6425   -10.1460     4.3167 C.ar    
  22 C22            0.7693   -10.7364     5.2442 C.ar    
  23 C23            1.1882   -10.9464     6.5249 C.ar    
  24 C24            2.4743   -10.5816     6.9246 C.ar    
  25 C25            3.3447   -10.0075     6.0504 C.ar    
  26 C26            2.9494    -9.7749     4.7214 C.ar    
  27 F27            0.3477   -11.5141     7.4174 F       
  28 C28            2.4346    -8.9710    -1.5629 C.3     
  29 C29            2.2202   -10.4825    -1.7481 C.3     
  30 C30            1.0224   -10.1233    -2.6432 C.3     
  31 C31            0.9357    -8.8014    -1.8620 C.3     
  32 C32            1.3913    -9.9412    -4.1168 C.3     
  33 C33           -0.1892   -11.0354    -2.4408 C.3     
  34 C34           -0.2211     3.5845     0.9799 C.3     
  35 C35           -1.5981     4.2343     1.1293 C.3     
  36 H36            0.2087    -0.4836     1.5518 H       
  37 H37            0.0683    -0.3556    -0.2180 H       
  38 H38            2.5388    -0.2562    -0.4068 H       
  39 H39            2.6792    -0.3843     1.3629 H       
  40 H40            5.1750    -4.5820    -0.0346 H       
  41 H41            5.0341    -7.0320    -0.1995 H       
  42 H42            0.7869    -6.8307     0.1520 H       
  43 H43            0.9066    -4.3805     0.3297 H       
  44 H44            1.1390    -2.5612     0.4325 H       
  45 H45            3.7931    -9.0103     0.1085 H       
  46 H46            0.9064    -9.2352     0.4972 H       
  47 H47            4.1418    -8.5335     1.9277 H       
  48 H48            0.2583   -10.1843     2.6455 H       
  49 H49           -0.2284   -11.0222     4.9453 H       
  50 H50            2.7838   -10.7574     7.9443 H       
  51 H51            4.3366    -9.7313     6.3765 H       
  52 H52            3.0846    -8.5266    -2.3166 H       
  53 H53            3.0319   -10.9763    -2.2824 H       
  54 H54            1.9400   -10.9994    -0.8304 H       
  55 H55            0.3043    -8.8588    -0.9754 H       
  56 H56            0.7103    -7.9382    -2.4882 H       
  57 H57            1.8186   -10.8673    -4.5015 H       
  58 H58            0.4970    -9.6895    -4.6868 H       
  59 H59            2.1211    -9.1373    -4.2121 H       
  60 H60           -0.5250   -10.9692    -1.4059 H       
  61 H61           -0.9947   -10.7221    -3.1049 H       
  62 H62            0.0890   -12.0646    -2.6673 H       
  63 H63            0.3926     3.8300     1.8466 H       
  64 H64            0.2607     3.9577     0.0761 H       
  65 H65           -2.2118     3.9887     0.2626 H       
  66 H66           -2.0799     3.8610     2.0330 H       
  67 H67           -1.4838     5.3160     1.1988 H       
@<TRIPOS>BOND
   1    1    2 1
   2    1    4 2
   3    1    5 1
   4    2    3 1
   5    2   36 1
   6    2   37 1
   7    3   14 1
   8    3   38 1
   9    3   39 1
  10    5   34 1
  11    6    7 1
  12    6   13 2
  13    6   14 am
  14    7    8 ar
  15    7   12 ar
  16    8    9 ar
  17    8   40 1
  18    9   10 ar
  19    9   41 1
  20   10   11 ar
  21   10   15 1
  22   11   12 ar
  23   11   42 1
  24   12   43 1
  25   14   44 1
  26   15   16 1
  27   15   28 1
  28   15   45 1
  29   16   19 1
  30   16   46 1
  31   17   18 ar
  32   17   26 ar
  33   18   19 ar
  34   18   47 1
  35   19   20 ar
  36   20   21 ar
  37   20   48 1
  38   21   22 ar
  39   21   26 ar
  40   22   23 ar
  41   22   49 1
  42   23   24 ar
  43   23   27 1
  44   24   25 ar
  45   24   50 1
  46   25   26 ar
  47   25   51 1
  48   28   29 1
  49   28   31 1
  50   28   52 1
  51   29   30 1
  52   29   53 1
  53   29   54 1
  54   30   31 1
  55   30   32 1
  56   30   33 1
  57   31   55 1
  58   31   56 1
  59   32   57 1
  60   32   58 1
  61   32   59 1
  62   33   60 1
  63   33   61 1
  64   33   62 1
  65   34   35 1
  66   34   63 1
  67   34   64 1
  68   35   65 1
  69   35   66 1
  70   35   67 1

#	End of record

