#	Name: ASD00310371
#	Creating user name:	WinNT
#	Creation time:	15. 06. 2019 18:34

#	Modifying user name:	WinNT
#	Modification time:	15. 06. 2019 18:34

#	Program:	/corina/corina34_cracker 3.40 0067  02.08.2006

@<TRIPOS>MOLECULE
ASD00310371
  44   47    0    0    0
SMALL
NO_CHARGES


@<TRIPOS>ATOM
   1 N1            -0.0165     1.3644     0.0095 N.pl3   
   2 C2             0.0021    -0.0041     0.0020 C.2     
   3 C3             1.2696    -0.4447    -0.0124 C.2     
   4 C4             2.1342     0.7388    -0.0143 C.ar    
   5 C5             3.5162     0.9262    -0.0265 C.ar    
   6 C6             4.0325     2.2140    -0.0245 C.ar    
   7 C7             3.1697     3.3166    -0.0104 C.ar    
   8 C8             1.8058     3.1365     0.0017 C.ar    
   9 C9             1.2717     1.8507    -0.0001 C.ar    
  10 S10            1.7948    -2.1266    -0.0256 S.o2    
  11 O11            1.7553    -2.5486    -1.3819 O.2     
  12 O12            2.9684    -2.1868     0.7733 O.2     
  13 O13            0.7341    -2.9355     0.7073 O.3     
  14 C14            5.5014     2.4231    -0.0369 C.ar    
  15 C15            6.0760     3.2934    -0.9610 C.ar    
  16 C16            7.4429     3.4841    -0.9681 C.ar    
  17 C17            8.2422     2.8128    -0.0604 C.ar    
  18 C18            7.6771     1.9476     0.8591 C.ar    
  19 C19            6.3106     1.7541     0.8792 C.ar    
  20 C20           11.7100     3.7154     1.2858 C.3     
  21 C21           10.1853     3.5781     1.2814 C.3     
  22 C22            9.7342     3.0243    -0.0737 C.3     
  23 C23           10.4390     1.6881    -0.3270 C.3     
  24 C24           11.9539     1.8985    -0.2605 C.3     
  25 O25           12.3023     2.4437     1.0136 O.3     
  26 Cl26           3.8261     4.9237    -0.0074 Cl      
  27 H27           -0.8181     1.9105     0.0165 H       
  28 H28           -0.8738    -0.6359     0.0073 H       
  29 H29            4.1801     0.0745    -0.0371 H       
  30 H30            1.1487     3.9935     0.0129 H       
  31 H31            0.9264    -3.8818     0.7579 H       
  32 H32            5.4530     3.8176    -1.6706 H       
  33 H33            7.8894     4.1584    -1.6838 H       
  34 H34            8.3057     1.4260     1.5655 H       
  35 H35            5.8700     1.0818     1.6005 H       
  36 H36           12.0129     4.4289     0.5195 H       
  37 H37           12.0404     4.0687     2.2626 H       
  38 H38            9.8788     2.8956     2.0741 H       
  39 H39            9.7311     4.5553     1.4450 H       
  40 H40            9.9953     3.7309    -0.8615 H       
  41 H41           10.1376     0.9674     0.4332 H       
  42 H42           10.1662     1.3138    -1.3137 H       
  43 H43           12.4599     0.9428    -0.3977 H       
  44 H44           12.2600     2.5882    -1.0471 H       
@<TRIPOS>BOND
   1    1    2 1
   2    1    9 1
   3    1   27 1
   4    2    3 2
   5    2   28 1
   6    3    4 1
   7    3   10 1
   8    4    5 ar
   9    4    9 ar
  10    5    6 ar
  11    5   29 1
  12    6    7 ar
  13    6   14 1
  14    7    8 ar
  15    7   26 1
  16    8    9 ar
  17    8   30 1
  18   10   11 2
  19   10   12 2
  20   10   13 1
  21   13   31 1
  22   14   15 ar
  23   14   19 ar
  24   15   16 ar
  25   15   32 1
  26   16   17 ar
  27   16   33 1
  28   17   18 ar
  29   17   22 1
  30   18   19 ar
  31   18   34 1
  32   19   35 1
  33   20   21 1
  34   20   25 1
  35   20   36 1
  36   20   37 1
  37   21   22 1
  38   21   38 1
  39   21   39 1
  40   22   23 1
  41   22   40 1
  42   23   24 1
  43   23   41 1
  44   23   42 1
  45   24   25 1
  46   24   43 1
  47   24   44 1

#	End of record

