#	Name: ASD04880071
#	Creating user name:	WinNT
#	Creation time:	15. 06. 2019 20:52

#	Modifying user name:	WinNT
#	Modification time:	15. 06. 2019 20:52

#	Program:	/corina/corina34_cracker 3.40 0067  02.08.2006

@<TRIPOS>MOLECULE
ASD04880071
  44   47    0    0    0
SMALL
NO_CHARGES


@<TRIPOS>ATOM
   1 C1            -0.0144     1.2121     0.0087 C.2     
   2 O2             0.0475    -0.0024     0.0316 O.2     
   3 N3             1.1162     1.9435    -0.0487 N.am    
   4 N4             1.1793     3.3280    -0.1919 N.2     
   5 C5             2.3780     3.8001    -0.2207 C.2     
   6 C6             3.3703     2.6673    -0.0857 C.3     
   7 C7             2.4853     1.4109     0.0361 C.3     
   8 C8             2.7279     5.2250    -0.3637 C.ar    
   9 C9             1.7195     6.1857    -0.4809 C.ar    
  10 C10            2.0531     7.5200    -0.6143 C.ar    
  11 C11            3.3923     7.9053    -0.6316 C.ar    
  12 C12            4.3932     6.9522    -0.5157 C.ar    
  13 C13            4.0679     5.6190    -0.3765 C.ar    
  14 O14            3.7183     9.2184    -0.7628 O.3     
  15 C15            5.1098     9.5434    -0.7730 C.3     
  16 O16            1.0745     8.4574    -0.7290 O.3     
  17 C17           -0.2762     7.9915    -0.7040 C.3     
  18 O18           -4.8692     3.9909     0.1401 O.3     
  19 C19           -4.3404     5.2983    -0.1492 C.3     
  20 O20           -2.9715     5.2194     0.2899 O.3     
  21 C21           -2.6306     3.9015     0.1834 C.ar    
  22 C22           -3.8000     3.1456     0.0910 C.ar    
  23 C23           -1.3999     3.2753     0.1568 C.ar    
  24 C24           -1.3275     1.8846     0.0376 C.ar    
  25 C25           -2.5014     1.1329    -0.0546 C.ar    
  26 C26           -3.7275     1.7634    -0.0274 C.ar    
  27 Cl27          -5.1848     0.8271    -0.1421 Cl      
  28 H28            4.0051     2.6078    -0.9698 H       
  29 H29            3.9748     2.7935     0.8125 H       
  30 H30            2.6464     0.9176     0.9946 H       
  31 H31            2.6815     0.7244    -0.7875 H       
  32 H32            0.6820     5.8858    -0.4677 H       
  33 H33            5.4298     7.2552    -0.5304 H       
  34 H34            4.8493     4.8795    -0.2817 H       
  35 H35            5.2304    10.6211    -0.8832 H       
  36 H36            5.5652     9.2208     0.1633 H       
  37 H37            5.5953     9.0364    -1.6068 H       
  38 H38           -0.4367     7.2979    -1.5294 H       
  39 H39           -0.4675     7.4825     0.2407 H       
  40 H40           -0.9547     8.8387    -0.8041 H       
  41 H41           -4.3882     5.5026    -1.2189 H       
  42 H42           -4.8790     6.0620     0.4118 H       
  43 H43           -0.4944     3.8596     0.2280 H       
  44 H44           -2.4486     0.0581    -0.1471 H       
@<TRIPOS>BOND
   1    1    2 2
   2    1    3 am
   3    1   24 1
   4    3    4 1
   5    3    7 1
   6    4    5 2
   7    5    6 1
   8    5    8 1
   9    6    7 1
  10    6   28 1
  11    6   29 1
  12    7   30 1
  13    7   31 1
  14    8    9 ar
  15    8   13 ar
  16    9   10 ar
  17    9   32 1
  18   10   11 ar
  19   10   16 1
  20   11   12 ar
  21   11   14 1
  22   12   13 ar
  23   12   33 1
  24   13   34 1
  25   14   15 1
  26   15   35 1
  27   15   36 1
  28   15   37 1
  29   16   17 1
  30   17   38 1
  31   17   39 1
  32   17   40 1
  33   18   19 1
  34   18   22 1
  35   19   20 1
  36   19   41 1
  37   19   42 1
  38   20   21 1
  39   21   22 ar
  40   21   23 ar
  41   22   26 ar
  42   23   24 ar
  43   23   43 1
  44   24   25 ar
  45   25   26 ar
  46   25   44 1
  47   26   27 1

#	End of record

