#	Name: ASD03540372
#	Creating user name:	WinNT
#	Creation time:	15. 06. 2019 20:43

#	Modifying user name:	WinNT
#	Modification time:	15. 06. 2019 20:43

#	Program:	/corina/corina34_cracker 3.40 0067  02.08.2006

@<TRIPOS>MOLECULE
ASD03540372
  55   59    0    0    0
SMALL
NO_CHARGES


@<TRIPOS>ATOM
   1 N1            -0.0161     1.3396     0.0094 N.am    
   2 C2             0.0021    -0.0041     0.0020 C.2     
   3 N3             1.1390    -0.7172    -0.0122 N.am    
   4 C4             2.3459    -0.1106    -0.0200 C.2     
   5 C5             2.3857     1.3633    -0.0129 C.ar    
   6 C6             3.5871     2.0607    -0.0197 C.ar    
   7 C7             3.5659     3.4548    -0.0121 C.ar    
   8 C8             2.3437     4.1382     0.0023 C.ar    
   9 C9             1.1622     3.4519     0.0094 C.ar    
  10 C10            1.1637     2.0628     0.0020 C.ar    
  11 C11            4.8337     4.2115    -0.0186 C.2     
  12 O12            5.8952     3.6190    -0.0307 O.2     
  13 N13            4.8141     5.5591    -0.0113 N.am    
  14 C14            6.0721     6.3100    -0.0178 C.3     
  15 O15            4.9688    11.8141     0.2817 O.3     
  16 C16            5.3613    12.0032     1.6541 C.3     
  17 O17            5.2078    10.6956     2.2371 O.3     
  18 C18            5.3772     9.8154     1.2077 C.ar    
  19 C19            5.2302    10.5032     0.0052 C.ar    
  20 C20            5.6494     8.4574     1.1957 C.ar    
  21 C21            5.7753     7.7874    -0.0074 C.ar    
  22 C22            5.6299     8.4699    -1.2004 C.ar    
  23 C23            5.3575     9.8257    -1.1961 C.ar    
  24 O24            3.3721    -0.7626    -0.0320 O.2     
  25 O25           -1.0576    -0.5997     0.0089 O.2     
  26 C26            1.0697    -2.1806    -0.0189 C.3     
  27 C27            1.0327    -2.6752    -1.4420 C.ar    
  28 C28            2.2125    -2.9583    -2.1052 C.ar    
  29 C29            2.1812    -3.4118    -3.4097 C.ar    
  30 C30            0.9648    -3.5831    -4.0543 C.ar    
  31 C31           -0.2176    -3.2984    -3.3867 C.ar    
  32 C32           -0.1812    -2.8505    -2.0804 C.ar    
  33 O33            0.9314    -4.0287    -5.3377 O.3     
  34 C34           -0.3563    -4.1815    -5.9382 C.3     
  35 H35           -0.8657     1.8077     0.0159 H       
  36 H36            4.5271     1.5290    -0.0304 H       
  37 H37            2.3349     5.2181     0.0081 H       
  38 H38            0.2260     3.9901     0.0212 H       
  39 H39            3.9672     6.0319    -0.0017 H       
  40 H40            6.6548     6.0502     0.8660 H       
  41 H41            6.6399     6.0598    -0.9139 H       
  42 H42            6.3996    12.3297     1.7139 H       
  43 H43            4.7042    12.7209     2.1450 H       
  44 H44            5.7642     7.9217     2.1264 H       
  45 H45            5.7289     7.9432    -2.1381 H       
  46 H46            5.2437    10.3563    -2.1298 H       
  47 H47            1.9463    -2.5881     0.4847 H       
  48 H48            0.1684    -2.5041     0.5017 H       
  49 H49            3.1592    -2.8244    -1.6030 H       
  50 H50            3.1030    -3.6324    -3.9274 H       
  51 H51           -1.1658    -3.4309    -3.8864 H       
  52 H52           -1.1015    -2.6332    -1.5586 H       
  53 H53           -0.9422    -4.8990    -5.3637 H       
  54 H54           -0.8687    -3.2195    -5.9487 H       
  55 H55           -0.2402    -4.5425    -6.9601 H       
@<TRIPOS>BOND
   1    1    2 am
   2    1   10 1
   3    1   35 1
   4    2    3 am
   5    2   25 2
   6    3    4 am
   7    3   26 1
   8    4    5 1
   9    4   24 2
  10    5    6 ar
  11    5   10 ar
  12    6    7 ar
  13    6   36 1
  14    7    8 ar
  15    7   11 1
  16    8    9 ar
  17    8   37 1
  18    9   10 ar
  19    9   38 1
  20   11   12 2
  21   11   13 am
  22   13   14 1
  23   13   39 1
  24   14   21 1
  25   14   40 1
  26   14   41 1
  27   15   16 1
  28   15   19 1
  29   16   17 1
  30   16   42 1
  31   16   43 1
  32   17   18 1
  33   18   19 ar
  34   18   20 ar
  35   19   23 ar
  36   20   21 ar
  37   20   44 1
  38   21   22 ar
  39   22   23 ar
  40   22   45 1
  41   23   46 1
  42   26   27 1
  43   26   47 1
  44   26   48 1
  45   27   28 ar
  46   27   32 ar
  47   28   29 ar
  48   28   49 1
  49   29   30 ar
  50   29   50 1
  51   30   31 ar
  52   30   33 1
  53   31   32 ar
  54   31   51 1
  55   32   52 1
  56   33   34 1
  57   34   53 1
  58   34   54 1
  59   34   55 1

#	End of record

