#	Name: ASD07930874
#	Creating user name:	WinNT
#	Creation time:	15. 06. 2019 21:13

#	Modifying user name:	WinNT
#	Modification time:	15. 06. 2019 21:13

#	Program:	/corina/corina34_cracker 3.40 0067  02.08.2006

@<TRIPOS>MOLECULE
ASD07930874
  56   60    0    0    0
SMALL
NO_CHARGES


@<TRIPOS>ATOM
   1 N1            -0.0746     1.3079    -0.0625 N.2     
   2 C2            -0.0457     0.0071    -0.0529 C.2     
   3 N3             1.1066    -0.7087    -0.0450 N.am    
   4 C4             2.3051    -0.0803    -0.0468 C.2     
   5 C5             2.2992     1.3882    -0.0581 C.ar    
   6 C6             3.4905     2.1304    -0.0612 C.ar    
   7 C7             3.4747     3.4846    -0.0721 C.ar    
   8 C8             2.2590     4.2000    -0.0806 C.ar    
   9 C9             1.0281     3.4994    -0.0778 C.ar    
  10 C10            1.0523     2.0397    -0.0656 C.ar    
  11 C11           -0.1744     4.2135    -0.0857 C.ar    
  12 C12           -0.1501     5.5777    -0.0961 C.ar    
  13 C13            1.0571     6.2690    -0.0989 C.ar    
  14 C14            2.2464     5.6032    -0.0913 C.ar    
  15 O15            3.3484    -0.7084    -0.0390 O.2     
  16 C16            4.7786     4.2402    -0.0746 C.3     
  17 C17            5.9135     3.7560     2.1085 C.ar    
  18 C18            5.1473     4.6105     1.3389 C.ar    
  19 C19            4.7223     5.8131     1.8829 C.ar    
  20 C20            5.0854     6.1127     3.1866 C.ar    
  21 C21            5.8545     5.2082     3.8968 C.ar    
  22 N22            6.2413     4.0730     3.3460 N.ar    
  23 Cl23           6.3164     5.5707     5.5305 Cl      
  24 N24           -0.2874    -4.6632    -0.0184 N.am    
  25 C25            0.2871    -4.1778     1.2437 C.3     
  26 C26            0.3109    -2.6463     1.2178 C.3     
  27 C27            1.0531    -2.1726    -0.0339 C.3     
  28 C28            0.3177    -2.6655    -1.2823 C.3     
  29 C29            0.2940    -4.1972    -1.2847 C.3     
  30 O30            0.9811    -2.1599     2.3824 O.3     
  31 C31           -1.3245    -5.5240    -0.0147 C.2     
  32 O32           -1.8564    -5.8372    -1.0586 O.2     
  33 C33           -1.8231    -6.0973     1.2868 C.3     
  34 H34           -0.9837    -0.5282    -0.0508 H       
  35 H35            4.4377     1.6117    -0.0546 H       
  36 H36           -1.1177     3.6877    -0.0840 H       
  37 H37           -1.0796     6.1276    -0.1026 H       
  38 H38            1.0519     7.3489    -0.1075 H       
  39 H39            3.1757     6.1535    -0.0932 H       
  40 H40            5.5611     3.6132    -0.5018 H       
  41 H41            4.6724     5.1460    -0.6716 H       
  42 H42            6.2445     2.8156     1.6931 H       
  43 H43            4.1227     6.5003     1.3043 H       
  44 H44            4.7722     7.0406     3.6421 H       
  45 H45           -0.3242    -4.5197     2.0788 H       
  46 H46            1.3032    -4.5572     1.3525 H       
  47 H47           -0.7108    -2.2668     1.2004 H       
  48 H48            2.0670    -2.5728    -0.0281 H       
  49 H49           -0.7041    -2.2858    -1.2762 H       
  50 H50            0.8337    -2.3081    -2.1734 H       
  51 H51            1.3106    -4.5782    -1.3822 H       
  52 H52           -0.3128    -4.5519    -2.1179 H       
  53 H53            0.5658    -2.4246     3.2146 H       
  54 H54           -1.1665    -5.7824     2.0978 H       
  55 H55           -2.8345    -5.7387     1.4780 H       
  56 H56           -1.8289    -7.1856     1.2258 H       
@<TRIPOS>BOND
   1    1    2 2
   2    1   10 1
   3    2    3 1
   4    2   34 1
   5    3    4 am
   6    3   27 1
   7    4    5 1
   8    4   15 2
   9    5    6 ar
  10    5   10 ar
  11    6    7 ar
  12    6   35 1
  13    7    8 ar
  14    7   16 1
  15    8    9 ar
  16    8   14 ar
  17    9   10 ar
  18    9   11 ar
  19   11   12 ar
  20   11   36 1
  21   12   13 ar
  22   12   37 1
  23   13   14 ar
  24   13   38 1
  25   14   39 1
  26   16   18 1
  27   16   40 1
  28   16   41 1
  29   17   18 ar
  30   17   22 ar
  31   17   42 1
  32   18   19 ar
  33   19   20 ar
  34   19   43 1
  35   20   21 ar
  36   20   44 1
  37   21   22 ar
  38   21   23 1
  39   24   25 1
  40   24   29 1
  41   24   31 am
  42   25   26 1
  43   25   45 1
  44   25   46 1
  45   26   27 1
  46   26   30 1
  47   26   47 1
  48   27   28 1
  49   27   48 1
  50   28   29 1
  51   28   49 1
  52   28   50 1
  53   29   51 1
  54   29   52 1
  55   30   53 1
  56   31   32 2
  57   31   33 1
  58   33   54 1
  59   33   55 1
  60   33   56 1

#	End of record

