#	Name: ASD00843351
#	Creating user name:	WinNT
#	Creation time:	15. 06. 2019 18:46

#	Modifying user name:	WinNT
#	Modification time:	15. 06. 2019 18:46

#	Program:	/corina/corina34_cracker 3.40 0067  02.08.2006

@<TRIPOS>MOLECULE
ASD00843351
  98  103    0    0    0
SMALL
NO_CHARGES


@<TRIPOS>ATOM
   1 N1             0.7223     1.1474    -0.6593 N.ar    
   2 C2             0.9430    -0.1428    -0.8485 C.ar    
   3 C3             0.8628    -1.0374     0.2112 C.ar    
   4 C4             0.5482    -0.5614     1.4719 C.ar    
   5 C5             0.3238     0.7996     1.6287 C.ar    
   6 C6             0.4205     1.6310     0.5309 C.ar    
   7 C7             1.1146    -2.5068    -0.0093 C.3     
   8 C8             0.8345    -3.2889     1.2563 C.2     
   9 C9             0.2569    -3.0292    -1.1635 C.3     
  10 C10           -1.1907    -2.7017    -0.9020 C.2     
  11 N11           -2.1419    -3.1199    -1.7602 N.am    
  12 O12           -1.4996    -2.0617     0.0808 O.2     
  13 C13           -3.5416    -2.7090    -1.5847 C.3     
  14 C14           -4.4232    -3.9614    -1.5550 C.3     
  15 C15           -4.1652    -4.7919    -2.8143 C.3     
  16 C16           -2.7001    -5.2332    -2.8452 C.3     
  17 C17           -1.7980    -3.9906    -2.8927 C.3     
  18 N18           -5.0331    -5.9771    -2.8053 N.3     
  19 C19           -4.8992    -6.7375    -4.0557 C.3     
  20 C20           -5.7565    -8.0027    -3.9745 C.3     
  21 N21           -7.1574    -7.6277    -3.7370 N.3     
  22 C22           -7.2913    -6.8674    -2.4866 C.3     
  23 C23           -6.4341    -5.6021    -2.5678 C.3     
  24 C24           -8.0254    -8.8129    -3.7280 C.3     
  25 O25           -0.2293    -3.3680     1.8333 O.2     
  26 N26            1.9848    -3.8797     1.6199 N.am    
  27 C27            2.5808    -2.7587    -0.2784 C.ar    
  28 C28            3.0281    -3.5913     0.7446 C.ar    
  29 C29            3.4313    -2.3346    -1.2677 C.ar    
  30 C30            4.7706    -2.7406    -1.2556 C.ar    
  31 C31            5.2273    -3.5776    -0.2303 C.ar    
  32 C32            4.3624    -3.9979     0.7573 C.ar    
  33 F33            6.5183    -3.9751    -0.2096 F       
  34 C34            1.7932    -6.4942     2.4577 C.ar    
  35 C35            0.5201    -6.8308     2.0207 C.ar    
  36 C36            2.7881    -7.4528     2.4951 C.ar    
  37 C37            2.5178    -8.7479     2.0973 C.ar    
  38 C38            1.2458    -9.0896     1.6594 C.ar    
  39 C39            0.2462    -8.1300     1.6214 C.ar    
  40 O40            0.9805   -10.3638     1.2687 O.3     
  41 O41           -0.4579    -5.8878     1.9846 O.3     
  42 C42            2.0580   -11.3002     1.3345 C.3     
  43 C43           -1.7446    -6.3050     1.5238 C.3     
  44 C44           -2.7071    -5.1160     1.5533 C.3     
  45 C45           -9.4197    -8.4202    -3.2355 C.3     
  46 O46            1.2501    -0.5970    -2.0895 O.3     
  47 C47            1.2359     0.3585    -3.1520 C.3     
  48 C48            1.6988    -0.3119    -4.4471 C.3     
  49 F49            2.9622    -0.8804    -4.2521 F       
  50 F50            0.7881    -1.3112    -4.8063 F       
  51 S51            2.1439    -4.8417     2.9584 S.o2    
  52 O52            3.5199    -4.8130     3.3120 O.2     
  53 O53            1.1043    -4.4635     3.8503 O.2     
  54 C54            5.6665    -2.3040    -2.2838 C.1     
  55 N55            6.3772    -1.9575    -3.0995 N.1     
  56 H56            0.4785    -1.2334     2.3145 H       
  57 H57            0.0760     1.2037     2.5991 H       
  58 H58            0.2472     2.6906     0.6476 H       
  59 H59            0.5737    -2.5579    -2.0939 H       
  60 H60            0.3760    -4.1096    -1.2447 H       
  61 H61           -3.6478    -2.1651    -0.6461 H       
  62 H62           -3.8418    -2.0704    -2.4154 H       
  63 H63           -4.1831    -4.5545    -0.6726 H       
  64 H64           -5.4722    -3.6672    -1.5219 H       
  65 H65           -4.3818    -4.1901    -3.6969 H       
  66 H66           -2.4763    -5.8143    -1.9505 H       
  67 H67           -2.5227    -5.8441    -3.7302 H       
  68 H68           -1.9575    -3.4590    -3.8308 H       
  69 H69           -0.7539    -4.2938    -2.8150 H       
  70 H70           -5.2345    -6.1241    -4.8920 H       
  71 H71           -3.8553    -7.0143    -4.2029 H       
  72 H72           -5.6814    -8.5537    -4.9120 H       
  73 H73           -5.4038    -8.6290    -3.1551 H       
  74 H74           -8.3353    -6.5905    -2.3394 H       
  75 H75           -6.9561    -7.4807    -1.6503 H       
  76 H76           -6.5091    -5.0512    -1.6303 H       
  77 H77           -6.7868    -4.9758    -3.3872 H       
  78 H78           -8.0973    -9.2182    -4.7373 H       
  79 H79           -7.6041    -9.5667    -3.0629 H       
  80 H80            3.0683    -1.6894    -2.0540 H       
  81 H81            4.7200    -4.6436     1.5457 H       
  82 H82            3.7784    -7.1889     2.8355 H       
  83 H83            3.2971    -9.4951     2.1267 H       
  84 H84           -0.7442    -8.3940     1.2814 H       
  85 H85            2.8732   -10.9616     0.6952 H       
  86 H86            2.4106   -11.3767     2.3631 H       
  87 H87            1.7120   -12.2767     0.9955 H       
  88 H88           -1.6613    -6.6798     0.5037 H       
  89 H89           -2.1238    -7.0955     2.1714 H       
  90 H90           -3.6885    -5.4342     1.2018 H       
  91 H91           -2.7904    -4.7412     2.5735 H       
  92 H92           -2.3279    -4.3255     0.9057 H       
  93 H93           -9.3477    -8.0148    -2.2263 H       
  94 H94           -9.8410    -7.6663    -3.9006 H       
  95 H95          -10.0637    -9.2995    -3.2288 H       
  96 H96            0.2237     0.7414    -3.2828 H       
  97 H97            1.9073     1.1821    -2.9091 H       
  98 H98            1.7540     0.4321    -5.2417 H       
@<TRIPOS>BOND
   1    1    2 ar
   2    1    6 ar
   3    2    3 ar
   4    2   46 1
   5    3    4 ar
   6    3    7 1
   7    4    5 ar
   8    4   56 1
   9    5    6 ar
  10    5   57 1
  11    6   58 1
  12    7    8 1
  13    7    9 1
  14    7   27 1
  15    8   25 2
  16    8   26 am
  17    9   10 1
  18    9   59 1
  19    9   60 1
  20   10   11 am
  21   10   12 2
  22   11   13 1
  23   11   17 1
  24   13   14 1
  25   13   61 1
  26   13   62 1
  27   14   15 1
  28   14   63 1
  29   14   64 1
  30   15   16 1
  31   15   18 1
  32   15   65 1
  33   16   17 1
  34   16   66 1
  35   16   67 1
  36   17   68 1
  37   17   69 1
  38   18   19 1
  39   18   23 1
  40   19   20 1
  41   19   70 1
  42   19   71 1
  43   20   21 1
  44   20   72 1
  45   20   73 1
  46   21   22 1
  47   21   24 1
  48   22   23 1
  49   22   74 1
  50   22   75 1
  51   23   76 1
  52   23   77 1
  53   24   45 1
  54   24   78 1
  55   24   79 1
  56   26   51 am
  57   26   28 1
  58   27   28 ar
  59   27   29 ar
  60   28   32 ar
  61   29   30 ar
  62   29   80 1
  63   30   31 ar
  64   30   54 1
  65   31   32 ar
  66   31   33 1
  67   32   81 1
  68   34   35 ar
  69   34   36 ar
  70   34   51 1
  71   35   41 1
  72   35   39 ar
  73   36   37 ar
  74   36   82 1
  75   37   38 ar
  76   37   83 1
  77   38   39 ar
  78   38   40 1
  79   39   84 1
  80   40   42 1
  81   41   43 1
  82   42   85 1
  83   42   86 1
  84   42   87 1
  85   43   44 1
  86   43   88 1
  87   43   89 1
  88   44   90 1
  89   44   91 1
  90   44   92 1
  91   45   93 1
  92   45   94 1
  93   45   95 1
  94   46   47 1
  95   47   48 1
  96   47   96 1
  97   47   97 1
  98   48   49 1
  99   48   50 1
 100   48   98 1
 101   51   52 2
 102   51   53 2
 103   54   55 3

#	End of record

