#	Name: ASD01811352
#	Creating user name:	WinNT
#	Creation time:	15. 06. 2019 19:26

#	Modifying user name:	WinNT
#	Modification time:	15. 06. 2019 19:26

#	Program:	/corina/corina34_cracker 3.40 0067  02.08.2006

@<TRIPOS>MOLECULE
ASD01811352
  66   69    0    0    0
SMALL
NO_CHARGES


@<TRIPOS>ATOM
   1 N1             0.1966     1.1632     0.0703 N.am    
   2 C2             0.1628    -0.1109    -0.3677 C.2     
   3 O3             1.1273    -0.5839    -0.9373 O.2     
   4 N4            -0.9402    -0.8609    -0.1742 N.am    
   5 O5            -1.1979    -4.3816     0.4275 O.3     
   6 C6            -0.3815    -3.2049     0.4029 C.3     
   7 C7            -0.9770    -2.2459    -0.6503 C.3     
   8 C8            -2.4408    -2.7518    -0.7664 C.3     
   9 C9            -2.2441    -4.2735    -0.5509 C.3     
  10 C10            1.3793     1.9056    -0.0272 C.ar    
  11 C11            1.3236     3.2725    -0.2725 C.ar    
  12 C12            2.4885     4.0099    -0.3701 C.ar    
  13 C13            3.7150     3.3939    -0.2245 C.ar    
  14 C14            3.7816     2.0218     0.0226 C.ar    
  15 C15            2.6057     1.2786     0.1266 C.ar    
  16 C16            4.9820     4.2025    -0.3328 C.3     
  17 C17           -0.0115     3.9528    -0.4332 C.3     
  18 C18           -0.5633     4.3251     0.9444 C.3     
  19 C19            5.0942     1.3591     0.1785 C.2     
  20 O20            5.9318     1.4561    -0.6970 O.2     
  21 N21            5.3618     0.6474     1.2913 N.am    
  22 C22            6.6907     0.0565     1.5005 C.3     
  23 C23            7.2232     0.5105     2.8632 C.3     
  24 C24            6.2019     0.1605     3.9479 C.3     
  25 C25            4.8895     0.8979     3.6722 C.3     
  26 C26            4.3322     0.4530     2.3212 C.3     
  27 F27            5.9712    -1.2193     3.9431 F       
  28 C28            6.7374     0.5750     5.2942 C.ar    
  29 C29            6.1476     0.0913     6.4485 C.ar    
  30 C30            6.6327     0.4666     7.6842 C.ar    
  31 C31            7.7218     1.3364     7.7682 C.ar    
  32 C32            8.3124     1.8204     6.5992 C.ar    
  33 C33            7.8202     1.4331     5.3701 C.ar    
  34 C34            8.2303     1.7306     9.0475 C.1     
  35 N35            8.6338     2.0433    10.0624 N.1     
  36 H36           -0.5997     1.5671     0.4493 H       
  37 H37           -1.7097    -0.4836     0.2802 H       
  38 H38           -0.3898    -2.7286     1.3833 H       
  39 H39            0.6395    -3.4688     0.1273 H       
  40 H40           -0.4561    -2.3439    -1.6027 H       
  41 H41           -3.0680    -2.3222     0.0148 H       
  42 H42           -2.8507    -2.5447    -1.7549 H       
  43 H43           -1.9416    -4.7516    -1.4826 H       
  44 H44           -3.1623    -4.7241    -0.1742 H       
  45 H45            2.4389     5.0717    -0.5612 H       
  46 H46            2.6509     0.2174     0.3221 H       
  47 H47            5.2114     4.6497     0.6344 H       
  48 H48            5.8028     3.5528    -0.6365 H       
  49 H49            4.8483     4.9898    -1.0746 H       
  50 H50            0.1104     4.8554    -1.0319 H       
  51 H51           -0.7060     3.2769    -0.9322 H       
  52 H52           -0.6851     3.4224     1.5431 H       
  53 H53            0.1312     5.0010     1.4434 H       
  54 H54           -1.5289     4.8171     0.8282 H       
  55 H55            6.6142    -1.0307     1.4818 H       
  56 H56            7.3672     0.3909     0.7139 H       
  57 H57            8.1650     0.0034     3.0730 H       
  58 H58            7.3849     1.5883     2.8499 H       
  59 H59            4.1702     0.6665     4.4578 H       
  60 H60            5.0732     1.9721     3.6513 H       
  61 H61            3.4530     1.0489     2.0761 H       
  62 H62            4.0594    -0.6011     2.3708 H       
  63 H63            5.3053    -0.5814     6.3821 H       
  64 H64            6.1710     0.0888     8.5845 H       
  65 H65            9.1551     2.4934     6.6572 H       
  66 H66            8.2786     1.8034     4.4651 H       
@<TRIPOS>BOND
   1    1    2 am
   2    1   10 1
   3    1   36 1
   4    2    3 2
   5    2    4 am
   6    4    7 1
   7    4   37 1
   8    5    6 1
   9    5    9 1
  10    6    7 1
  11    6   38 1
  12    6   39 1
  13    7    8 1
  14    7   40 1
  15    8    9 1
  16    8   41 1
  17    8   42 1
  18    9   43 1
  19    9   44 1
  20   10   11 ar
  21   10   15 ar
  22   11   12 ar
  23   11   17 1
  24   12   13 ar
  25   12   45 1
  26   13   14 ar
  27   13   16 1
  28   14   15 ar
  29   14   19 1
  30   15   46 1
  31   16   47 1
  32   16   48 1
  33   16   49 1
  34   17   18 1
  35   17   50 1
  36   17   51 1
  37   18   52 1
  38   18   53 1
  39   18   54 1
  40   19   20 2
  41   19   21 am
  42   21   22 1
  43   21   26 1
  44   22   23 1
  45   22   55 1
  46   22   56 1
  47   23   24 1
  48   23   57 1
  49   23   58 1
  50   24   25 1
  51   24   27 1
  52   24   28 1
  53   25   26 1
  54   25   59 1
  55   25   60 1
  56   26   61 1
  57   26   62 1
  58   28   29 ar
  59   28   33 ar
  60   29   30 ar
  61   29   63 1
  62   30   31 ar
  63   30   64 1
  64   31   32 ar
  65   31   34 1
  66   32   33 ar
  67   32   65 1
  68   33   66 1
  69   34   35 3

#	End of record

