#	Name: ASD04881141
#	Creating user name:	WinNT
#	Creation time:	15. 06. 2019 20:53

#	Modifying user name:	WinNT
#	Modification time:	15. 06. 2019 20:53

#	Program:	/corina/corina34_cracker 3.40 0067  02.08.2006

@<TRIPOS>MOLECULE
ASD04881141
  77   82    0    0    0
SMALL
NO_CHARGES


@<TRIPOS>ATOM
   1 C1             0.2476     1.2130     0.9453 C.2     
   2 C2             1.4186     1.6863     0.4381 C.2     
   3 C3             1.8926     3.0813     0.4842 C.2     
   4 O4             1.2114     3.9378     1.0150 O.2     
   5 N5             2.0694     0.6294    -0.1193 N.2     
   6 C6             1.3384    -0.4334     0.0370 C.2     
   7 O7             0.2136    -0.1043     0.6878 O.3     
   8 N8             3.0808     3.4076    -0.0619 N.am    
   9 C9             3.4779     4.7499    -0.1248 C.ar    
  10 C10            4.8289     5.0864     0.0011 C.ar    
  11 C11            5.2242     6.4173    -0.0616 C.ar    
  12 C12            4.2868     7.4095    -0.2474 C.ar    
  13 C13            2.9348     7.0801    -0.3740 C.ar    
  14 C14            2.5351     5.7416    -0.3170 C.ar    
  15 C15            1.9310     8.1429    -0.5726 C.2     
  16 O16            0.7547     7.8553    -0.6826 O.2     
  17 N17            2.3179     9.4326    -0.6320 N.am    
  18 N18            5.7797     4.0868     0.1899 N.3     
  19 C19            5.5995     3.4276     1.4909 C.3     
  20 C20            6.6102     2.2862     1.6258 C.3     
  21 N21            7.9719     2.8230     1.4948 N.3     
  22 C22            8.1521     3.4823     0.1939 C.3     
  23 C23            7.1414     4.6237     0.0590 C.3     
  24 C24            8.9256     1.8204     1.6843 C.ar    
  25 C25           10.2790     2.1223     1.6014 C.ar    
  26 C26           11.2194     1.1286     1.7897 C.ar    
  27 C27           10.8151    -0.1658     2.0606 C.ar    
  28 C28            9.4686    -0.4698     2.1438 C.ar    
  29 C29            8.5230     0.5201     1.9618 C.ar    
  30 C30            1.3211    10.4880    -0.8292 C.3     
  31 C31            2.0188    11.8493    -0.8592 C.3     
  32 C32            0.9779    12.9515    -1.0651 C.3     
  33 N33            1.6459    14.2550    -1.0938 N.am    
  34 C34            1.6981    -1.8174    -0.4385 C.3     
  35 C35            2.1593    14.8957    -2.3103 C.3     
  36 C36            3.1342    15.9892    -1.8201 C.3     
  37 C37            2.5868    16.2884    -0.4052 C.3     
  38 C38            1.8624    15.0203    -0.0102 C.2     
  39 O39            1.5279    14.7347     1.1200 O.2     
  40 C40            1.8148    -2.9190     0.6169 C.3     
  41 C41            0.6214    -2.9001    -0.3404 C.3     
  42 H42           -0.5082     1.7869     1.4608 H       
  43 H43            3.6610     2.7133    -0.4114 H       
  44 H44            6.2687     6.6743     0.0360 H       
  45 H45            4.5971     8.4429    -0.2950 H       
  46 H46            1.4914     5.4836    -0.4190 H       
  47 H47            3.2563     9.6620    -0.5442 H       
  48 H48            5.7592     4.1510     2.2904 H       
  49 H49            4.5879     3.0274     1.5588 H       
  50 H50            6.4976     1.8142     2.6019 H       
  51 H51            6.4330     1.5491     0.8426 H       
  52 H52            9.1637     3.8824     0.1260 H       
  53 H53            7.9924     2.7588    -0.6056 H       
  54 H54            7.2539     5.0956    -0.9171 H       
  55 H55            7.3186     5.3607     0.8422 H       
  56 H56           10.5954     3.1330     1.3895 H       
  57 H57           12.2717     1.3626     1.7250 H       
  58 H58           11.5525    -0.9411     2.2071 H       
  59 H59            9.1562    -1.4818     2.3555 H       
  60 H60            7.4717     0.2829     2.0313 H       
  61 H61            0.8015    10.3251    -1.7734 H       
  62 H62            0.6021    10.4662    -0.0103 H       
  63 H63            2.5385    12.0121     0.0851 H       
  64 H64            2.7379    11.8710    -1.6781 H       
  65 H65            0.4582    12.7886    -2.0093 H       
  66 H66            0.2588    12.9297    -0.2462 H       
  67 H67            2.3794    -1.8603    -1.2883 H       
  68 H68            2.6877    14.1677    -2.9258 H       
  69 H69            1.3415    15.3446    -2.8740 H       
  70 H70            4.1545    15.6088    -1.7713 H       
  71 H71            3.0792    16.8738    -2.4547 H       
  72 H72            3.4051    16.4943     0.2847 H       
  73 H73            1.8912    17.1271    -0.4347 H       
  74 H74            2.5727    -3.6868     0.4613 H       
  75 H75            1.6315    -2.6426     1.6552 H       
  76 H76           -0.3470    -2.6114     0.0681 H       
  77 H77            0.5943    -3.6555    -1.1258 H       
@<TRIPOS>BOND
   1    1    7 1
   2    1    2 2
   3    1   42 1
   4    2    3 1
   5    2    5 1
   6    3    4 2
   7    3    8 am
   8    5    6 2
   9    6    7 1
  10    6   34 1
  11    8    9 1
  12    8   43 1
  13    9   10 ar
  14    9   14 ar
  15   10   11 ar
  16   10   18 1
  17   11   12 ar
  18   11   44 1
  19   12   13 ar
  20   12   45 1
  21   13   14 ar
  22   13   15 1
  23   14   46 1
  24   15   16 2
  25   15   17 am
  26   17   30 1
  27   17   47 1
  28   18   19 1
  29   18   23 1
  30   19   20 1
  31   19   48 1
  32   19   49 1
  33   20   21 1
  34   20   50 1
  35   20   51 1
  36   21   22 1
  37   21   24 1
  38   22   23 1
  39   22   52 1
  40   22   53 1
  41   23   54 1
  42   23   55 1
  43   24   25 ar
  44   24   29 ar
  45   25   26 ar
  46   25   56 1
  47   26   27 ar
  48   26   57 1
  49   27   28 ar
  50   27   58 1
  51   28   29 ar
  52   28   59 1
  53   29   60 1
  54   30   31 1
  55   30   61 1
  56   30   62 1
  57   31   32 1
  58   31   63 1
  59   31   64 1
  60   32   33 1
  61   32   65 1
  62   32   66 1
  63   33   35 1
  64   33   38 am
  65   34   40 1
  66   34   41 1
  67   34   67 1
  68   35   36 1
  69   35   68 1
  70   35   69 1
  71   36   37 1
  72   36   70 1
  73   36   71 1
  74   37   38 1
  75   37   72 1
  76   37   73 1
  77   38   39 2
  78   40   41 1
  79   40   74 1
  80   40   75 1
  81   41   76 1
  82   41   77 1

#	End of record

