#	Name: ASD02198418
#	Creating user name:	WinNT
#	Creation time:	15. 06. 2019 20:19

#	Modifying user name:	WinNT
#	Modification time:	15. 06. 2019 20:19

#	Program:	/corina/corina34_cracker 3.40 0067  02.08.2006

@<TRIPOS>MOLECULE
ASD02198418
  35   37    0    0    0
SMALL
NO_CHARGES


@<TRIPOS>ATOM
   1 C1            -0.1433     1.0937    -0.3017 C.2     
   2 C2            -0.0550    -0.2689    -0.3516 C.2     
   3 O3             1.1077     1.5895    -0.2027 O.3     
   4 C4             1.9864     0.5791    -0.1885 C.2     
   5 C5             1.3095    -0.5875    -0.2786 C.2     
   6 S6             3.7369     0.7433    -0.0725 S.o2    
   7 N7             4.3224     0.8532    -1.6176 N.am    
   8 C8             3.8973     1.8858    -2.4524 C.ar    
   9 C9             3.7177     1.6557    -3.8343 C.ar    
  10 C10            3.2845     2.7228    -4.6585 C.ar    
  11 C11            3.0423     3.9853    -4.0938 C.ar    
  12 C12            3.2244     4.1782    -2.7578 C.ar    
  13 C13            3.6437     3.1375    -1.9347 C.ar    
  14 N14            3.9499     0.4538    -4.3684 N.ar    
  15 C15            3.7854     0.2341    -5.6502 C.ar    
  16 C16            3.3620     1.2391    -6.5174 C.ar    
  17 C17            3.1060     2.4912    -6.0359 C.ar    
  18 O18            3.9821     2.0018     0.5400 O.2     
  19 O19            4.2211    -0.4847     0.4537 O.2     
  20 C20           -1.3789     1.8786    -0.3530 C.2     
  21 O21           -2.4531     1.3163    -0.4487 O.2     
  22 O22           -1.3254     3.2253    -0.2942 O.3     
  23 C23           -2.5890     3.9383    -0.3504 C.3     
  24 H24           -0.8762    -0.9657    -0.4316 H       
  25 H25            1.7385    -1.5786    -0.2916 H       
  26 H26            4.9611     0.1991    -1.9419 H       
  27 H27            2.7122     4.8025    -4.7180 H       
  28 H28            3.0365     5.1520    -2.3304 H       
  29 H29            3.7806     3.3153    -0.8782 H       
  30 H30            3.9835    -0.7517    -6.0445 H       
  31 H31            3.2360     1.0282    -7.5691 H       
  32 H32            2.7768     3.2821    -6.6936 H       
  33 H33           -3.0960     3.7059    -1.2869 H       
  34 H34           -3.2159     3.6332     0.4875 H       
  35 H35           -2.4038     5.0109    -0.2939 H       
@<TRIPOS>BOND
   1    1    2 2
   2    1    3 1
   3    1   20 1
   4    2    5 1
   5    2   24 1
   6    3    4 1
   7    4    5 2
   8    4    6 1
   9    5   25 1
  10    6    7 am
  11    6   18 2
  12    6   19 2
  13    7    8 1
  14    7   26 1
  15    8    9 ar
  16    8   13 ar
  17    9   10 ar
  18    9   14 ar
  19   10   11 ar
  20   10   17 ar
  21   11   12 ar
  22   11   27 1
  23   12   13 ar
  24   12   28 1
  25   13   29 1
  26   14   15 ar
  27   15   16 ar
  28   15   30 1
  29   16   17 ar
  30   16   31 1
  31   17   32 1
  32   20   21 2
  33   20   22 1
  34   22   23 1
  35   23   33 1
  36   23   34 1
  37   23   35 1

#	End of record

