#	Name: ASD06600008
#	Creating user name:	WinNT
#	Creation time:	15. 06. 2019 21:06

#	Modifying user name:	WinNT
#	Modification time:	15. 06. 2019 21:06

#	Program:	/corina/corina34_cracker 3.40 0067  02.08.2006

@<TRIPOS>MOLECULE
ASD06600008
 213  213    0    0    0
SMALL
NO_CHARGES


@<TRIPOS>ATOM
   1 C1             0.0273     1.1700     0.0200 C.2     
   2 O2             0.0267    -0.0423    -0.0170 O.2     
   3 N3             2.4214     1.0280     0.4113 N.3     
   4 C4             1.3321     1.9238     0.0003 C.3     
   5 C5             1.6020     2.4390    -1.4148 C.3     
   6 C6             2.8609     3.3086    -1.4095 C.3     
   7 C7             3.1308     3.8239    -2.8246 C.3     
   8 N8             4.3362     4.6564    -2.8195 N.pl3   
   9 C9             4.7781     5.2330    -3.9862 C.2     
  10 N10            4.1985     4.9439    -5.1155 N.2     
  11 N11            5.8375     6.1195    -3.9607 N.am    
  12 C12           -3.5025     1.9921    -0.4569 C.2     
  13 O13           -3.2481     3.1212    -0.8194 O.2     
  14 N14           -1.1391     1.8431     0.0733 N.am    
  15 C15           -2.4077     1.1105     0.0864 C.3     
  16 C16           -2.7463     0.7027     1.5217 C.3     
  17 C17           -1.6998    -0.2909     2.0300 C.3     
  18 C18           -2.0333    -0.6926     3.4436 C.2     
  19 O19           -3.0117    -0.2297     3.9908 O.2     
  20 N20           -1.2443    -1.5662     4.0999 N.am    
  21 C21           -7.1570     1.9303    -0.5189 C.2     
  22 O22           -7.2095     0.9850     0.2391 O.2     
  23 N23           -4.7643     1.5258    -0.5400 N.am    
  24 C24           -5.8286     2.3828    -1.0682 C.3     
  25 C25           -5.8491     2.2881    -2.5951 C.3     
  26 C26           -4.4627     2.6276    -3.1458 C.3     
  27 O27           -6.2045     0.9601    -2.9852 O.3     
  28 C28          -10.6786     2.5500    -1.2787 C.2     
  29 O29          -10.4107     3.1530    -2.2963 O.2     
  30 N30           -8.2867     2.5761    -0.8701 N.am    
  31 C31           -9.5780     2.1362    -0.3361 C.3     
  32 C32           -9.8099     2.7797     1.0325 C.3     
  33 C33           -8.7649     2.2623     2.0230 C.3     
  34 C34           -8.9968     2.9058     3.3916 C.3     
  35 N35           -7.9962     2.4103     4.3400 N.pl3   
  36 C36           -8.0056     2.8513     5.6422 C.2     
  37 N37           -8.9047     3.7103     6.0328 N.2     
  38 N38           -7.0665     2.3864     6.5322 N.pl3   
  39 C39          -14.3247     2.7758    -1.1450 C.2     
  40 O40          -14.3508     2.5500     0.0463 O.2     
  41 N41          -11.9606     2.2500    -0.9909 N.am    
  42 C42          -13.0306     2.6523    -1.9072 C.3     
  43 C43          -13.1842     1.5985    -3.0058 C.3     
  44 O44          -13.6245     0.3682    -2.4274 O.3     
  45 C45          -17.8703     3.0588    -1.9889 C.2     
  46 O46          -17.6655     2.8387    -3.1639 O.2     
  47 N47          -15.4532     3.1371    -1.7873 N.am    
  48 C48          -16.7113     3.2572    -1.0463 C.3     
  49 C49          -16.8002     4.6477    -0.4143 C.3     
  50 O50          -16.8725     5.6355    -1.4445 O.3     
  51 C51          -21.4799     3.6284    -1.8933 C.2     
  52 O52          -21.4140     4.2264    -0.8402 O.2     
  53 N53          -19.1343     3.1258    -1.5262 N.am    
  54 C54          -20.2610     2.9329    -2.4424 C.3     
  55 C55          -20.5495     1.4374    -2.5882 C.3     
  56 C56          -19.2755     0.7126    -3.0268 C.3     
  57 O57          -20.9883     0.9125    -1.3337 O.3     
  58 C58          -25.0700     3.6033    -2.5817 C.2     
  59 O59          -24.9746     2.6617    -3.3401 O.2     
  60 N60          -22.6433     3.5860    -2.5724 N.am    
  61 C61          -23.8282     4.2621    -2.0385 C.3     
  62 C62          -23.8072     5.7338    -2.4565 C.3     
  63 C63          -22.6135     6.4327    -1.8027 C.3     
  64 C64          -22.5928     7.8822    -2.2144 C.2     
  65 O65          -23.4454     8.3122    -2.9547 O.2     
  66 O66          -21.6272     8.6956    -1.7586 O.3     
  67 C67          -28.6326     4.4068    -2.7395 C.2     
  68 O68          -28.4536     5.5340    -2.3293 O.2     
  69 N69          -26.2865     4.0605    -2.2248 N.am    
  70 C70          -27.4936     3.4200    -2.7528 C.3     
  71 C71          -27.8534     2.2141    -1.8826 C.3     
  72 C72          -26.6513     1.2717    -1.7951 C.3     
  73 O73          -28.2051     2.6607    -0.5716 O.3     
  74 C74          -31.6104     4.9909    -1.8123 C.2     
  75 O75          -31.1937     4.2610    -0.9442 O.2     
  76 N76          -29.8501     4.0366    -3.1834 N.am    
  77 C77          -30.9574     4.9958    -3.1704 C.3     
  78 C78          -31.9860     4.6017    -4.2323 C.3     
  79 C79          -31.3675     4.7252    -5.6010 C.ar    
  80 C80          -30.7146     3.6449    -6.1645 C.ar    
  81 C81          -30.1473     3.7582    -7.4199 C.ar    
  82 C82          -30.2332     4.9517    -8.1121 C.ar    
  83 C83          -30.8869     6.0317    -7.5490 C.ar    
  84 C84          -31.4580     5.9171    -6.2954 C.ar    
  85 O85          -32.6550     5.7973    -1.5669 O.3     
  86 C86            6.3563     6.5157    -2.7816 C.2     
  87 O87            5.9517     6.0295    -1.7471 O.2     
  88 C88           18.0005    16.8641     7.6354 C.3     
  89 C89           16.9010    15.8007     7.6021 C.3     
  90 C90           16.4918    15.5354     6.1519 C.3     
  91 C91           15.3922    14.4720     6.1187 C.3     
  92 C92           14.9830    14.2067     4.6685 C.3     
  93 C93           13.8835    13.1433     4.6352 C.3     
  94 C94           13.4743    12.8780     3.1850 C.3     
  95 C95           12.3748    11.8146     3.1518 C.3     
  96 C96           11.9656    11.5493     1.7016 C.3     
  97 C97           10.8660    10.4859     1.6683 C.3     
  98 C98           10.4568    10.2205     0.2181 C.3     
  99 C99            9.3573     9.1572     0.1848 C.3     
 100 C100           8.9481     8.8918    -1.2654 C.3     
 101 C101           7.8486     7.8284    -1.2986 C.3     
 102 C102           7.4394     7.5631    -2.7488 C.3     
 103 H103           2.4947     0.2380    -0.2122 H       
 104 H104           3.2971     1.5260     0.4684 H       
 105 H105           1.2753     2.7665     0.6892 H       
 106 H106           1.7470     1.5939    -2.0877 H       
 107 H107           0.7525     3.0318    -1.7538 H       
 108 H108           2.7159     4.1537    -0.7366 H       
 109 H109           3.7105     2.7158    -1.0705 H       
 110 H110           3.2758     2.9787    -3.4975 H       
 111 H111           2.2813     4.4166    -3.1636 H       
 112 H112           4.8225     4.8008    -1.9927 H       
 113 H113           4.4616     5.4044    -5.9276 H       
 114 H114           6.2079     6.4567    -4.7913 H       
 115 H115          -1.1386     2.8127     0.1030 H       
 116 H116          -2.3184     0.2183    -0.5333 H       
 117 H117          -2.7482     1.5865     2.1597 H       
 118 H118          -3.7312     0.2363     1.5441 H       
 119 H119          -1.6979    -1.1747     1.3920 H       
 120 H120          -0.7148     0.1755     2.0075 H       
 121 H121          -0.4618    -1.9365     3.6623 H       
 122 H122          -1.4590    -1.8247     5.0099 H       
 123 H123          -4.9677     0.6228    -0.2501 H       
 124 H124          -5.6451     3.4152    -0.7706 H       
 125 H125          -6.5804     2.9916    -2.9930 H       
 126 H126          -3.7314     1.9241    -2.7479 H       
 127 H127          -4.4773     2.5601    -4.2336 H       
 128 H128          -4.1916     3.6406    -2.8483 H       
 129 H129          -5.5960     0.2800    -2.6653 H       
 130 H130          -8.2447     3.3321    -1.4763 H       
 131 H131          -9.5776     1.0512    -0.2320 H       
 132 H132          -9.7221     3.8626     0.9444 H       
 133 H133         -10.8073     2.5239     1.3900 H       
 134 H134          -8.8527     1.1794     2.1111 H       
 135 H135          -7.7675     2.5181     1.6655 H       
 136 H136          -8.9090     3.9887     3.3035 H       
 137 H137          -9.9942     2.6500     3.7491 H       
 138 H138          -7.3270     1.7711     4.0493 H       
 139 H139          -8.9114     4.0214     6.9516 H       
 140 H140          -6.3974     1.7471     6.2415 H       
 141 H141          -7.0732     2.6975     7.4509 H       
 142 H142         -12.1749     1.7678    -0.1770 H       
 143 H143         -12.7811     3.6130    -2.3577 H       
 144 H144         -13.9177     1.9396    -3.7364 H       
 145 H145         -12.2244     1.4452    -3.4990 H       
 146 H146         -13.7436    -0.3469    -3.0674 H       
 147 H147         -15.4323     3.3177    -2.7401 H       
 148 H148         -16.7457     2.4995    -0.2636 H       
 149 H149         -17.6924     4.7071     0.2091 H       
 150 H150         -15.9164     4.8256     0.1983 H       
 151 H151         -16.9310     6.5430    -1.1158 H       
 152 H152         -19.2981     3.3018    -0.5864 H       
 153 H153         -20.0122     3.3517    -3.4175 H       
 154 H154         -21.3280     1.2888    -3.3366 H       
 155 H155         -18.4970     0.8612    -2.2785 H       
 156 H156         -19.4810    -0.3528    -3.1307 H       
 157 H157         -18.9408     1.1130    -3.9837 H       
 158 H158         -20.3440     1.0104    -0.6193 H       
 159 H159         -22.6960     3.1077    -3.4146 H       
 160 H160         -23.8266     4.1933    -0.9507 H       
 161 H161         -23.7193     5.8024    -3.5408 H       
 162 H162         -24.7308     6.2158    -2.1357 H       
 163 H163         -22.7014     6.3641    -0.7185 H       
 164 H164         -21.6900     5.9507    -2.1235 H       
 165 H165         -21.6557     9.6172    -2.0502 H       
 166 H166         -26.3628     4.8136    -1.6182 H       
 167 H167         -27.3117     3.0890    -3.7752 H       
 168 H168         -28.6979     1.6857    -2.3252 H       
 169 H169         -26.9076     0.4125    -1.1751 H       
 170 H170         -26.3831     0.9310    -2.7951 H       
 171 H171         -25.8069     1.8000    -1.3525 H       
 172 H172         -28.4453     1.9475     0.0356 H       
 173 H173         -29.9933     3.1350    -3.5115 H       
 174 H174         -30.5761     5.9938    -3.3866 H       
 175 H175         -32.3015     3.5715    -4.0678 H       
 176 H176         -32.8505     5.2619    -4.1634 H       
 177 H177         -30.6475     2.7124    -5.6237 H       
 178 H178         -29.6366     2.9144    -7.8599 H       
 179 H179         -29.7893     5.0404    -9.0927 H       
 180 H180         -30.9537     6.9643    -8.0896 H       
 181 H181         -31.9719     6.7598    -5.8570 H       
 182 H182         -33.0406     5.7589    -0.6810 H       
 183 H183          18.2920    17.0531     8.6685 H       
 184 H184          18.8647    16.5109     7.0728 H       
 185 H185          17.6281    17.7859     7.1885 H       
 186 H186          17.2733    14.8789     8.0490 H       
 187 H187          16.0367    16.1540     8.1647 H       
 188 H188          16.1194    16.4572     5.7050 H       
 189 H189          17.3560    15.1822     5.5894 H       
 190 H190          15.7646    13.5502     6.5656 H       
 191 H191          14.5280    14.8253     6.6812 H       
 192 H192          14.6106    15.1285     4.2216 H       
 193 H193          15.8472    13.8535     4.1059 H       
 194 H194          14.2559    12.2215     5.0821 H       
 195 H195          13.0193    13.4965     5.1978 H       
 196 H196          13.1019    13.7998     2.7381 H       
 197 H197          14.3385    12.5247     2.6225 H       
 198 H198          12.7471    10.8928     3.5987 H       
 199 H199          11.5105    12.1678     3.7143 H       
 200 H200          11.5932    12.4711     1.2547 H       
 201 H201          12.8298    11.1960     1.1390 H       
 202 H202          11.2384     9.5641     2.1152 H       
 203 H203          10.0018    10.8391     2.2308 H       
 204 H204          10.0844    11.1423    -0.2288 H       
 205 H205          11.3210     9.8673    -0.3444 H       
 206 H206           9.7297     8.2354     0.6317 H       
 207 H207           8.4931     9.5104     0.7474 H       
 208 H208           8.5757     9.8136    -1.7123 H       
 209 H209           9.8123     8.5386    -1.8279 H       
 210 H210           8.2209     6.9067    -0.8517 H       
 211 H211           6.9843     8.1817    -0.7361 H       
 212 H212           8.3036     7.2099    -3.3114 H       
 213 H213           7.0670     8.4849    -3.1957 H       
@<TRIPOS>BOND
   1    1    2 2
   2    1    4 1
   3    1   14 am
   4    3    4 1
   5    3  103 1
   6    3  104 1
   7    4    5 1
   8    4  105 1
   9    5    6 1
  10    5  106 1
  11    5  107 1
  12    6    7 1
  13    6  108 1
  14    6  109 1
  15    7    8 1
  16    7  110 1
  17    7  111 1
  18    8    9 1
  19    8  112 1
  20    9   10 2
  21    9   11 1
  22   10  113 1
  23   11   86 am
  24   11  114 1
  25   12   13 2
  26   12   15 1
  27   12   23 am
  28   14   15 1
  29   14  115 1
  30   15   16 1
  31   15  116 1
  32   16   17 1
  33   16  117 1
  34   16  118 1
  35   17   18 1
  36   17  119 1
  37   17  120 1
  38   18   19 2
  39   18   20 am
  40   20  121 1
  41   20  122 1
  42   21   22 2
  43   21   24 1
  44   21   30 am
  45   23   24 1
  46   23  123 1
  47   24   25 1
  48   24  124 1
  49   25   26 1
  50   25   27 1
  51   25  125 1
  52   26  126 1
  53   26  127 1
  54   26  128 1
  55   27  129 1
  56   28   29 2
  57   28   31 1
  58   28   41 am
  59   30   31 1
  60   30  130 1
  61   31   32 1
  62   31  131 1
  63   32   33 1
  64   32  132 1
  65   32  133 1
  66   33   34 1
  67   33  134 1
  68   33  135 1
  69   34   35 1
  70   34  136 1
  71   34  137 1
  72   35   36 1
  73   35  138 1
  74   36   37 2
  75   36   38 1
  76   37  139 1
  77   38  140 1
  78   38  141 1
  79   39   40 2
  80   39   42 1
  81   39   47 am
  82   41   42 1
  83   41  142 1
  84   42   43 1
  85   42  143 1
  86   43   44 1
  87   43  144 1
  88   43  145 1
  89   44  146 1
  90   45   46 2
  91   45   48 1
  92   45   53 am
  93   47   48 1
  94   47  147 1
  95   48   49 1
  96   48  148 1
  97   49   50 1
  98   49  149 1
  99   49  150 1
 100   50  151 1
 101   51   52 2
 102   51   54 1
 103   51   60 am
 104   53   54 1
 105   53  152 1
 106   54   55 1
 107   54  153 1
 108   55   56 1
 109   55   57 1
 110   55  154 1
 111   56  155 1
 112   56  156 1
 113   56  157 1
 114   57  158 1
 115   58   59 2
 116   58   61 1
 117   58   69 am
 118   60   61 1
 119   60  159 1
 120   61   62 1
 121   61  160 1
 122   62   63 1
 123   62  161 1
 124   62  162 1
 125   63   64 1
 126   63  163 1
 127   63  164 1
 128   64   65 2
 129   64   66 1
 130   66  165 1
 131   67   68 2
 132   67   70 1
 133   67   76 am
 134   69   70 1
 135   69  166 1
 136   70   71 1
 137   70  167 1
 138   71   72 1
 139   71   73 1
 140   71  168 1
 141   72  169 1
 142   72  170 1
 143   72  171 1
 144   73  172 1
 145   74   75 2
 146   74   77 1
 147   74   85 1
 148   76   77 1
 149   76  173 1
 150   77   78 1
 151   77  174 1
 152   78   79 1
 153   78  175 1
 154   78  176 1
 155   79   80 ar
 156   79   84 ar
 157   80   81 ar
 158   80  177 1
 159   81   82 ar
 160   81  178 1
 161   82   83 ar
 162   82  179 1
 163   83   84 ar
 164   83  180 1
 165   84  181 1
 166   85  182 1
 167   86   87 2
 168   86  102 1
 169   88   89 1
 170   88  183 1
 171   88  184 1
 172   88  185 1
 173   89   90 1
 174   89  186 1
 175   89  187 1
 176   90   91 1
 177   90  188 1
 178   90  189 1
 179   91   92 1
 180   91  190 1
 181   91  191 1
 182   92   93 1
 183   92  192 1
 184   92  193 1
 185   93   94 1
 186   93  194 1
 187   93  195 1
 188   94   95 1
 189   94  196 1
 190   94  197 1
 191   95   96 1
 192   95  198 1
 193   95  199 1
 194   96   97 1
 195   96  200 1
 196   96  201 1
 197   97   98 1
 198   97  202 1
 199   97  203 1
 200   98   99 1
 201   98  204 1
 202   98  205 1
 203   99  100 1
 204   99  206 1
 205   99  207 1
 206  100  101 1
 207  100  208 1
 208  100  209 1
 209  101  102 1
 210  101  210 1
 211  101  211 1
 212  102  212 1
 213  102  213 1

#	End of record

