#	Name: ASD01915449
#	Creating user name:	WinNT
#	Creation time:	15. 06. 2019 20:05

#	Modifying user name:	WinNT
#	Modification time:	15. 06. 2019 20:05

#	Program:	/corina/corina34_cracker 3.40 0067  02.08.2006

@<TRIPOS>MOLECULE
ASD01915449
  42   46    0    0    0
SMALL
NO_CHARGES


@<TRIPOS>ATOM
   1 N1             0.0453     1.4111     0.3061 N.pl3   
   2 N2             0.0882     0.0198     0.4320 N.2     
   3 C3             1.2944    -0.4183     0.1654 C.2     
   4 C4             2.1219     0.7477    -0.1618 C.ar    
   5 C5             1.2808     1.8751    -0.0568 C.ar    
   6 N6             1.7560     3.0905    -0.2988 N.ar    
   7 C7             3.4593     0.9144    -0.5220 C.ar    
   8 C8             3.9166     2.2089    -0.7673 C.ar    
   9 C9             3.0162     3.2891    -0.6423 C.ar    
  10 C10            5.2800     2.4392    -1.1398 C.1     
  11 N11            6.3616     2.6219    -1.4353 N.1     
  12 C12            3.4921     4.6677    -0.9006 C.ar    
  13 C13            2.6425     5.6024    -1.4920 C.ar    
  14 C14            3.0917     6.8852    -1.7302 C.ar    
  15 C15            4.3820     7.2448    -1.3840 C.ar    
  16 C16            5.2295     6.3219    -0.7975 C.ar    
  17 C17            4.7897     5.0380    -0.5482 C.ar    
  18 C18            1.7401    -1.8317     0.1901 C.ar    
  19 C19            2.9369    -2.1771     0.8163 C.ar    
  20 C20            3.3470    -3.4956     0.8359 C.ar    
  21 C21            2.5717    -4.4731     0.2352 C.ar    
  22 C22            1.3840    -4.1352    -0.3876 C.ar    
  23 C23            0.9614    -2.8213    -0.4079 C.ar    
  24 Cl24           4.8370    -3.9283     1.6145 Cl      
  25 C25            4.3832    -0.2700    -0.6422 C.3     
  26 C26            4.0705    -1.3027    -1.7270 C.3     
  27 C27            5.2617    -0.3567    -1.8919 C.3     
  28 H28           -0.7398     1.9624     0.4497 H       
  29 H29            1.6353     5.3227    -1.7634 H       
  30 H30            2.4348     7.6099    -2.1881 H       
  31 H31            4.7291     8.2499    -1.5727 H       
  32 H32            6.2358     6.6084    -0.5298 H       
  33 H33            5.4506     4.3199    -0.0856 H       
  34 H34            3.5422    -1.4151     1.2847 H       
  35 H35            2.8958    -5.5031     0.2527 H       
  36 H36            0.7835    -4.9016    -0.8548 H       
  37 H37            0.0313    -2.5598    -0.8904 H       
  38 H38            4.8030    -0.6358     0.2948 H       
  39 H39            4.2850    -2.3478    -1.5037 H       
  40 H40            3.1965    -1.1254    -2.3536 H       
  41 H41            5.1713     0.4429    -2.6271 H       
  42 H42            6.2598    -0.7795    -1.7771 H       
@<TRIPOS>BOND
   1    1    2 1
   2    1    5 1
   3    1   28 1
   4    2    3 2
   5    3    4 1
   6    3   18 1
   7    4    7 ar
   8    4    5 ar
   9    5    6 ar
  10    6    9 ar
  11    7    8 ar
  12    7   25 1
  13    8    9 ar
  14    8   10 1
  15    9   12 1
  16   10   11 3
  17   12   13 ar
  18   12   17 ar
  19   13   14 ar
  20   13   29 1
  21   14   15 ar
  22   14   30 1
  23   15   16 ar
  24   15   31 1
  25   16   17 ar
  26   16   32 1
  27   17   33 1
  28   18   19 ar
  29   18   23 ar
  30   19   20 ar
  31   19   34 1
  32   20   21 ar
  33   20   24 1
  34   21   22 ar
  35   21   35 1
  36   22   23 ar
  37   22   36 1
  38   23   37 1
  39   25   26 1
  40   25   27 1
  41   25   38 1
  42   26   27 1
  43   26   39 1
  44   26   40 1
  45   27   41 1
  46   27   42 1

#	End of record

