#	Name: ASD03331086
#	Creating user name:	WinNT
#	Creation time:	15. 06. 2019 20:38

#	Modifying user name:	WinNT
#	Modification time:	15. 06. 2019 20:38

#	Program:	/corina/corina34_cracker 3.40 0067  02.08.2006

@<TRIPOS>MOLECULE
ASD03331086
  68   71    0    0    0
SMALL
NO_CHARGES


@<TRIPOS>ATOM
   1 N1             0.6560     0.3879    -1.3095 N.pl3   
   2 C2             0.4799    -0.9562    -1.2001 C.2     
   3 C3             1.5431    -2.0011    -1.4166 C.3     
   4 N4             2.7595    -1.6096    -0.6874 N.3     
   5 C5             3.6259    -0.7677    -1.5146 C.3     
   6 C6             2.8007     0.1173    -2.4444 C.3     
   7 C7             1.9215     1.0597    -1.6180 C.3     
   8 C8            -0.5502     0.9790    -1.0688 C.2     
   9 N9            -1.4304     0.0420    -0.8039 N.2     
  10 C10           -0.8254    -1.1644    -0.8740 C.2     
  11 C11           -1.4644    -2.4714    -0.6399 C.2     
  12 O12           -0.8112    -3.4931    -0.7335 O.2     
  13 N13           -2.7726    -2.5347    -0.3221 N.am    
  14 C14           -4.9133    -3.6389     0.1017 C.3     
  15 C15           -3.4079    -3.8341    -0.0894 C.3     
  16 C16           -3.1606    -4.7456    -1.2931 C.3     
  17 N17           -5.5341    -3.3222    -1.1915 N.3     
  18 C18           -6.9905    -3.5003    -1.1338 C.3     
  19 C19           -7.5855    -3.3040    -2.5300 C.3     
  20 C20           -7.2440    -1.8984    -3.0320 C.3     
  21 C21           -5.7230    -1.7221    -3.0366 C.3     
  22 C22           -5.1820    -1.9643    -1.6257 C.3     
  23 C23           -7.7840    -1.7173    -4.4521 C.3     
  24 C24           -2.8132    -4.4749     1.1662 C.3     
  25 C25            3.4837    -2.7907    -0.1992 C.3     
  26 C26           -0.8204     2.4324    -1.1005 C.ar    
  27 C27           -1.9249     2.9254    -1.8009 C.ar    
  28 C28           -2.1724     4.2845    -1.8265 C.ar    
  29 C29           -1.3279     5.1570    -1.1601 C.ar    
  30 C30           -0.2303     4.6724    -0.4642 C.ar    
  31 C31            0.0230     3.3162    -0.4267 C.ar    
  32 F32           -1.5739     6.4851    -1.1885 F       
  33 F33           -2.7485     2.0750    -2.4518 F       
  34 Cl34           0.8233     5.7736     0.3671 Cl      
  35 H35            1.1896    -2.9630    -1.0455 H       
  36 H36            1.7656    -2.0794    -2.4808 H       
  37 H37            4.2358    -0.1370    -0.8678 H       
  38 H38            4.2789    -1.4040    -2.1120 H       
  39 H39            3.4695     0.7044    -3.0738 H       
  40 H40            2.1687    -0.5088    -3.0742 H       
  41 H41            1.7229     1.9669    -2.1886 H       
  42 H42            2.4335     1.3161    -0.6905 H       
  43 H43           -3.2936    -1.7198    -0.2475 H       
  44 H44           -5.3507    -4.5543     0.5002 H       
  45 H45           -5.0878    -2.8194     0.7989 H       
  46 H46           -2.0881    -4.8846    -1.4293 H       
  47 H47           -3.6332    -5.7124    -1.1200 H       
  48 H48           -3.5842    -4.2890    -2.1877 H       
  49 H49           -7.2197    -4.5053    -0.7793 H       
  50 H50           -7.4192    -2.7677    -0.4500 H       
  51 H51           -7.1676    -4.0453    -3.2112 H       
  52 H52           -8.6683    -3.4209    -2.4839 H       
  53 H53           -7.6947    -1.1566    -2.3726 H       
  54 H54           -5.2757    -2.4384    -3.7258 H       
  55 H55           -5.4751    -0.7088    -3.3525 H       
  56 H56           -5.6192    -1.2388    -0.9396 H       
  57 H57           -4.0977    -1.8535    -1.6285 H       
  58 H58           -8.8661    -1.8486    -4.4488 H       
  59 H59           -7.5405    -0.7165    -4.8086 H       
  60 H60           -7.3302    -2.4580    -5.1105 H       
  61 H61           -2.9894    -3.8256     2.0238 H       
  62 H62           -3.2859    -5.4417     1.3394 H       
  63 H63           -1.7408    -4.6140     1.0301 H       
  64 H64            3.7078    -3.4514    -1.0367 H       
  65 H65            4.4137    -2.4765     0.2746 H       
  66 H66            2.8670    -3.3207     0.5267 H       
  67 H67           -3.0254     4.6671    -2.3671 H       
  68 H68            0.8753     2.9401     0.1197 H       
@<TRIPOS>BOND
   1    1    2 1
   2    1    7 1
   3    1    8 1
   4    2    3 1
   5    2   10 2
   6    3    4 1
   7    3   35 1
   8    3   36 1
   9    4    5 1
  10    4   25 1
  11    5    6 1
  12    5   37 1
  13    5   38 1
  14    6    7 1
  15    6   39 1
  16    6   40 1
  17    7   41 1
  18    7   42 1
  19    8    9 2
  20    8   26 1
  21    9   10 1
  22   10   11 1
  23   11   12 2
  24   11   13 am
  25   13   15 1
  26   13   43 1
  27   14   15 1
  28   14   17 1
  29   14   44 1
  30   14   45 1
  31   15   16 1
  32   15   24 1
  33   16   46 1
  34   16   47 1
  35   16   48 1
  36   17   18 1
  37   17   22 1
  38   18   19 1
  39   18   49 1
  40   18   50 1
  41   19   20 1
  42   19   51 1
  43   19   52 1
  44   20   21 1
  45   20   23 1
  46   20   53 1
  47   21   22 1
  48   21   54 1
  49   21   55 1
  50   22   56 1
  51   22   57 1
  52   23   58 1
  53   23   59 1
  54   23   60 1
  55   24   61 1
  56   24   62 1
  57   24   63 1
  58   25   64 1
  59   25   65 1
  60   25   66 1
  61   26   27 ar
  62   26   31 ar
  63   27   28 ar
  64   27   33 1
  65   28   29 ar
  66   28   67 1
  67   29   30 ar
  68   29   32 1
  69   30   31 ar
  70   30   34 1
  71   31   68 1

#	End of record

