#	Name: ASD00841481
#	Creating user name:	WinNT
#	Creation time:	15. 06. 2019 18:42

#	Modifying user name:	WinNT
#	Modification time:	15. 06. 2019 18:42

#	Program:	/corina/corina34_cracker 3.40 0067  02.08.2006

@<TRIPOS>MOLECULE
ASD00841481
  92   97    0    0    0
SMALL
NO_CHARGES


@<TRIPOS>ATOM
   1 C1            -0.0142     1.3803     0.0276 C.ar    
   2 C2             0.0033    -0.0066     0.0121 C.ar    
   3 C3             1.2149    -0.6826    -0.0058 C.ar    
   4 C4             2.4001     0.0266    -0.0082 C.ar    
   5 C5             2.3800     1.4092     0.0078 C.ar    
   6 C6             1.1742     2.0851     0.0252 C.ar    
   7 C7             1.2376    -2.1893    -0.0222 C.3     
   8 C8             0.4952    -2.7178    -1.2311 C.2     
   9 N9             2.6177    -2.6807    -0.0123 N.am    
  10 C10            3.4635    -2.3343    -1.0027 C.2     
  11 N11            4.7591    -2.7005    -0.9414 N.am    
  12 O12            3.0578    -1.6913    -1.9516 O.2     
  13 C13            5.2904    -3.3764     0.2501 C.3     
  14 C14            6.5168    -2.6055     0.7485 C.3     
  15 C15            7.5241    -2.4629    -0.3948 C.3     
  16 C16            6.8891    -1.6717    -1.5407 C.3     
  17 C17            5.6656    -2.4371    -2.0673 C.3     
  18 C18            8.7653    -1.7235     0.1087 C.3     
  19 C19            9.4028    -2.5147     1.2541 C.3     
  20 C20           10.6771    -1.8020     1.7127 C.3     
  21 N21           11.6131    -1.6970     0.5861 N.3     
  22 C22           11.0409    -0.9011    -0.5073 C.3     
  23 C23            9.7775    -1.5870    -1.0321 C.3     
  24 H24           12.4982    -1.3163     0.8857 H       
  25 O25            0.7748    -2.5148    -2.3937 O.2     
  26 N26           -0.5320    -3.4537    -0.7741 N.am    
  27 C27            0.4667    -2.7434     1.1539 C.ar    
  28 C28           -0.5773    -3.4891     0.6206 C.ar    
  29 C29            0.6296    -2.6303     2.5162 C.ar    
  30 C30           -0.2541    -3.2648     3.3729 C.ar    
  31 C31           -1.2997    -4.0117     2.8537 C.ar    
  32 C32           -1.4636    -4.1255     1.4864 C.ar    
  33 Cl33          -0.0526    -3.1257     5.0916 Cl      
  34 F34           -2.1627    -4.6314     3.6883 F       
  35 C35           -0.9829    -5.8428    -2.0638 C.ar    
  36 C36            0.1966    -5.9970    -2.7780 C.ar    
  37 C37           -1.6560    -6.9533    -1.5909 C.ar    
  38 C38           -1.1563    -8.2194    -1.8276 C.ar    
  39 C39            0.0232    -8.3789    -2.5416 C.ar    
  40 C40            0.6999    -7.2666    -3.0173 C.ar    
  41 O41            0.5140    -9.6246    -2.7745 O.3     
  42 O42            0.8578    -4.9046    -3.2431 O.3     
  43 C43           -0.2357   -10.7248    -2.2553 C.3     
  44 C44            2.0655    -5.1381    -3.9703 C.3     
  45 C45            2.6630    -3.7999    -4.4098 C.3     
  46 S46           -1.6194    -4.2294    -1.7531 S.o2    
  47 O47           -2.7996    -4.4053    -0.9815 O.2     
  48 O48           -1.5993    -3.5436    -2.9975 O.2     
  49 O49           -1.1642    -0.7021     0.0149 O.3     
  50 C50           -3.5736    -0.8888     0.0345 C.3     
  51 C51           -2.3731     0.0597     0.0342 C.3     
  52 H52           -0.9560     1.9089     0.0371 H       
  53 H53            3.3434    -0.4991    -0.0221 H       
  54 H54            3.3079     1.9619     0.0066 H       
  55 H55            1.1611     3.1650     0.0376 H       
  56 H56            2.9227    -3.2554     0.7072 H       
  57 H57            4.5288    -3.3950     1.0296 H       
  58 H58            5.5789    -4.3958    -0.0062 H       
  59 H59            6.2109    -1.6164     1.0894 H       
  60 H60            6.9774    -3.1488     1.5736 H       
  61 H61            7.8107    -3.4521    -0.7517 H       
  62 H62            6.5797    -0.6914    -1.1782 H       
  63 H63            7.6147    -1.5504    -2.3449 H       
  64 H64            5.9874    -3.3786    -2.5124 H       
  65 H65            5.1514    -1.8337    -2.8154 H       
  66 H66            8.4802    -0.7334     0.4644 H       
  67 H67            8.7019    -2.5786     2.0865 H       
  68 H68            9.6513    -3.5184     0.9090 H       
  69 H69           10.4260    -0.8035     2.0705 H       
  70 H70           11.1411    -2.3705     2.5187 H       
  71 H71           10.7881     0.0931    -0.1390 H       
  72 H72           11.7692    -0.8153    -1.3137 H       
  73 H73           10.0318    -2.5760    -1.4132 H       
  74 H74            9.3443    -0.9880    -1.8332 H       
  75 H75            1.4461    -2.0475     2.9164 H       
  76 H76           -2.2807    -4.7088     1.0883 H       
  77 H77           -2.5739    -6.8313    -1.0352 H       
  78 H78           -1.6837    -9.0857    -1.4565 H       
  79 H79            1.6177    -7.3887    -3.5733 H       
  80 H80           -0.3075   -10.6362    -1.1713 H       
  81 H81           -1.2363   -10.7188    -2.6874 H       
  82 H82            0.2650   -11.6586    -2.5112 H       
  83 H83            2.7778    -5.6622    -3.3330 H       
  84 H84            1.8488    -5.7454    -4.8491 H       
  85 H85            3.5843    -3.9780    -4.9645 H       
  86 H86            1.9508    -3.2758    -5.0470 H       
  87 H87            2.8797    -3.1926    -3.5310 H       
  88 H88           -4.4957    -0.3078     0.0492 H       
  89 H89           -3.5482    -1.5074    -0.8627 H       
  90 H90           -3.5322    -1.5271     0.9171 H       
  91 H91           -2.3985     0.6782     0.9313 H       
  92 H92           -2.4145     0.6979    -0.8484 H       
@<TRIPOS>BOND
   1    1    2 ar
   2    1    6 ar
   3    1   52 1
   4    2    3 ar
   5    2   49 1
   6    3    4 ar
   7    3    7 1
   8    4    5 ar
   9    4   53 1
  10    5    6 ar
  11    5   54 1
  12    6   55 1
  13    7    8 1
  14    7    9 1
  15    7   27 1
  16    8   25 2
  17    8   26 am
  18    9   10 am
  19    9   56 1
  20   10   11 am
  21   10   12 2
  22   11   13 1
  23   11   17 1
  24   13   14 1
  25   13   57 1
  26   13   58 1
  27   14   15 1
  28   14   59 1
  29   14   60 1
  30   15   16 1
  31   15   18 1
  32   15   61 1
  33   16   17 1
  34   16   62 1
  35   16   63 1
  36   17   64 1
  37   17   65 1
  38   18   19 1
  39   18   23 1
  40   18   66 1
  41   19   20 1
  42   19   67 1
  43   19   68 1
  44   20   21 1
  45   20   69 1
  46   20   70 1
  47   21   22 1
  48   21   24 1
  49   22   23 1
  50   22   71 1
  51   22   72 1
  52   23   73 1
  53   23   74 1
  54   26   46 am
  55   26   28 1
  56   27   28 ar
  57   27   29 ar
  58   28   32 ar
  59   29   30 ar
  60   29   75 1
  61   30   31 ar
  62   30   33 1
  63   31   32 ar
  64   31   34 1
  65   32   76 1
  66   35   36 ar
  67   35   37 ar
  68   35   46 1
  69   36   42 1
  70   36   40 ar
  71   37   38 ar
  72   37   77 1
  73   38   39 ar
  74   38   78 1
  75   39   40 ar
  76   39   41 1
  77   40   79 1
  78   41   43 1
  79   42   44 1
  80   43   80 1
  81   43   81 1
  82   43   82 1
  83   44   45 1
  84   44   83 1
  85   44   84 1
  86   45   85 1
  87   45   86 1
  88   45   87 1
  89   46   47 2
  90   46   48 2
  91   49   51 1
  92   50   51 1
  93   50   88 1
  94   50   89 1
  95   50   90 1
  96   51   91 1
  97   51   92 1

#	End of record

