#	Name: ASD01917916
#	Creating user name:	WinNT
#	Creation time:	15. 06. 2019 20:10

#	Modifying user name:	WinNT
#	Modification time:	15. 06. 2019 20:10

#	Program:	/corina/corina34_cracker 3.40 0067  02.08.2006

@<TRIPOS>MOLECULE
ASD01917916
  43   46    0    0    0
SMALL
NO_CHARGES


@<TRIPOS>ATOM
   1 C1            -0.0169     1.3933     0.0097 C.ar    
   2 C2             0.0021    -0.0041     0.0020 C.ar    
   3 C3             1.2252    -0.6793    -0.0133 C.ar    
   4 C4             2.4042     0.0366    -0.0207 C.ar    
   5 C5             2.3777     1.4199    -0.0126 C.ar    
   6 C6             1.1699     2.0956     0.0021 C.ar    
   7 C7             1.1516     3.6025     0.0104 C.3     
   8 C8             1.3820     4.1544    -1.4097 C.3     
   9 O9             2.6126     4.9256    -1.2930 O.3     
  10 C10            3.0608     4.8627    -0.0342 C.2     
  11 N11            2.2896     4.1288     0.7796 N.am    
  12 C12           -1.2261    -0.7403     0.0103 C.1     
  13 C13           -2.2331    -1.3439     0.0170 C.1     
  14 C14           -3.4613    -2.0802     0.0253 C.ar    
  15 C15           -4.6293    -4.1797     0.0251 C.ar    
  16 C16           -5.8368    -3.5042     0.0402 C.ar    
  17 C17           -5.8635    -2.1206     0.0426 C.ar    
  18 C18           -4.6846    -1.4048     0.0352 C.ar    
  19 C19           -3.4423    -3.4774     0.0176 C.ar    
  20 C20            0.2380     5.0442    -1.8227 C.ar    
  21 C21           -0.8081     4.5259    -2.5626 C.ar    
  22 C22           -1.8590     5.3434    -2.9415 C.ar    
  23 C23           -1.8609     6.6798    -2.5786 C.ar    
  24 C24           -0.8141     7.1958    -1.8388 C.ar    
  25 C25            0.2325     6.3770    -1.4565 C.ar    
  26 F26           -2.8818     4.8380    -3.6651 F       
  27 O27            4.0747     5.4199     0.3373 O.2     
  28 H28           -0.9587     1.9219     0.0170 H       
  29 H29            1.2474    -1.7590    -0.0189 H       
  30 H30            3.3504    -0.4839    -0.0325 H       
  31 H31            3.3040     1.9752    -0.0181 H       
  32 H32            0.2093     3.9707     0.4161 H       
  33 H33            1.5086     3.3382    -2.1210 H       
  34 H34            2.4550     3.9701     1.7222 H       
  35 H35           -4.6161    -5.2597     0.0238 H       
  36 H36           -6.7631    -4.0594     0.0461 H       
  37 H37           -6.8097    -1.6001     0.0545 H       
  38 H38           -4.7068    -0.3251     0.0374 H       
  39 H39           -2.5006    -4.0059     0.0054 H       
  40 H40           -0.8054     3.4836    -2.8454 H       
  41 H41           -2.6801     7.3186    -2.8739 H       
  42 H42           -0.8154     8.2380    -1.5557 H       
  43 H43            1.0481     6.7801    -0.8745 H       
@<TRIPOS>BOND
   1    1    2 ar
   2    1    6 ar
   3    1   28 1
   4    2    3 ar
   5    2   12 1
   6    3    4 ar
   7    3   29 1
   8    4    5 ar
   9    4   30 1
  10    5    6 ar
  11    5   31 1
  12    6    7 1
  13    7    8 1
  14    7   11 1
  15    7   32 1
  16    8    9 1
  17    8   20 1
  18    8   33 1
  19    9   10 1
  20   10   11 am
  21   10   27 2
  22   11   34 1
  23   12   13 3
  24   13   14 1
  25   14   19 ar
  26   14   18 ar
  27   15   16 ar
  28   15   19 ar
  29   15   35 1
  30   16   17 ar
  31   16   36 1
  32   17   18 ar
  33   17   37 1
  34   18   38 1
  35   19   39 1
  36   20   21 ar
  37   20   25 ar
  38   21   22 ar
  39   21   40 1
  40   22   23 ar
  41   22   26 1
  42   23   24 ar
  43   23   41 1
  44   24   25 ar
  45   24   42 1
  46   25   43 1

#	End of record

