#	Name: ASD03092859
#	Creating user name:	WinNT
#	Creation time:	15. 06. 2019 20:33

#	Modifying user name:	WinNT
#	Modification time:	15. 06. 2019 20:33

#	Program:	/corina/corina34_cracker 3.40 0067  02.08.2006

@<TRIPOS>MOLECULE
ASD03092859
  44   46    0    0    0
SMALL
NO_CHARGES


@<TRIPOS>ATOM
   1 C1            -0.0167     1.3784     0.0096 C.ar    
   2 C2             0.0021    -0.0041     0.0020 C.ar    
   3 C3            -1.1841    -0.7122     0.0095 C.ar    
   4 C4            -2.3948    -0.0349     0.0247 C.ar    
   5 C5            -2.4109     1.3523     0.0323 C.ar    
   6 C6            -1.2219     2.0557     0.0305 C.ar    
   7 O7            -3.5630    -0.7292     0.0317 O.3     
   8 C8            -4.7711     0.0339     0.0474 C.3     
   9 C9             1.2788     2.1484     0.0014 C.3     
  10 C10            1.6028     2.6166     1.4215 C.3     
  11 N11            1.1496     3.3122    -0.8790 N.am    
  12 O12            0.4999     3.3626     1.9403 O.3     
  13 C13            2.2460     3.8531    -1.4462 C.2     
  14 O14            3.3396     3.3764    -1.2278 O.2     
  15 C15            2.1131     5.0502    -2.3519 C.3     
  16 C16            3.3948     5.6179    -2.9650 C.3     
  17 C17            2.4048     4.8462    -3.8399 C.3     
  18 C18            4.6934     4.9371    -2.6171 C.ar    
  19 C19            5.6973     5.6457    -1.9839 C.ar    
  20 C20            6.8886     5.0213    -1.6648 C.ar    
  21 C21            7.0758     3.6881    -1.9785 C.ar    
  22 C22            6.0715     2.9792    -2.6110 C.ar    
  23 C23            4.8786     3.6026    -2.9261 C.ar    
  24 H24            0.9448    -0.5308    -0.0102 H       
  25 H25           -1.1689    -1.7920     0.0032 H       
  26 H26           -3.3521     1.8818     0.0442 H       
  27 H27           -1.2339     3.1356     0.0364 H       
  28 H28           -5.6271    -0.6410     0.0515 H       
  29 H29           -4.7955     0.6572     0.9412 H       
  30 H30           -4.8122     0.6674    -0.8387 H       
  31 H31            2.0811     1.5057    -0.3612 H       
  32 H32            1.7864     1.7501     2.0568 H       
  33 H33            2.4913     3.2477     1.4021 H       
  34 H34            0.2749     3.6934    -1.0537 H       
  35 H35            0.6358     3.6916     2.8394 H       
  36 H36            1.3271     5.7567    -2.0850 H       
  37 H37            3.4518     6.6978    -3.1019 H       
  38 H38            2.6928     3.8461    -4.1638 H       
  39 H39            1.8105     5.4184    -4.5523 H       
  40 H40            5.5511     6.6873    -1.7388 H       
  41 H41            7.6732     5.5751    -1.1707 H       
  42 H42            8.0068     3.2003    -1.7299 H       
  43 H43            6.2179     1.9377    -2.8564 H       
  44 H44            4.0940     3.0488    -3.4202 H       
@<TRIPOS>BOND
   1    1    2 ar
   2    1    9 1
   3    1    6 ar
   4    2    3 ar
   5    2   24 1
   6    3    4 ar
   7    3   25 1
   8    4    5 ar
   9    4    7 1
  10    5    6 ar
  11    5   26 1
  12    6   27 1
  13    7    8 1
  14    8   28 1
  15    8   29 1
  16    8   30 1
  17    9   10 1
  18    9   11 1
  19    9   31 1
  20   10   12 1
  21   10   32 1
  22   10   33 1
  23   11   13 am
  24   11   34 1
  25   12   35 1
  26   13   14 2
  27   13   15 1
  28   15   16 1
  29   15   17 1
  30   15   36 1
  31   16   17 1
  32   16   18 1
  33   16   37 1
  34   17   38 1
  35   17   39 1
  36   18   19 ar
  37   18   23 ar
  38   19   20 ar
  39   19   40 1
  40   20   21 ar
  41   20   41 1
  42   21   22 ar
  43   21   42 1
  44   22   23 ar
  45   22   43 1
  46   23   44 1

#	End of record

