#	Name: ASD02150004
#	Creating user name:	WinNT
#	Creation time:	15. 06. 2019 20:18

#	Modifying user name:	WinNT
#	Modification time:	15. 06. 2019 20:18

#	Program:	/corina/corina34_cracker 3.40 0067  02.08.2006

@<TRIPOS>MOLECULE
ASD02150004
  57   61    0    0    0
SMALL
NO_CHARGES


@<TRIPOS>ATOM
   1 C1             1.1171    -0.3575    -0.6727 C.ar    
   2 C2            -0.1315     0.2544    -0.5109 C.ar    
   3 C3            -0.1928     1.6453    -0.4123 C.ar    
   4 N4             0.9051     2.3697    -0.4705 N.ar    
   5 C5             2.0952     1.8204    -0.6230 C.ar    
   6 C6             2.2404     0.4489    -0.7280 C.ar    
   7 C7             0.8026     3.8272    -0.3635 C.3     
   8 C8             0.9042     4.2329     1.0843 C.2     
   9 O9             1.0482     3.3879     1.9422 O.2     
  10 N10            0.8351     5.5349     1.4257 N.am    
  11 C11           -1.3650    -0.5593    -0.4460 C.2     
  12 O12           -1.3150    -1.7590    -0.6526 O.2     
  13 C13           -4.0634     1.5582     0.4194 C.2     
  14 N14           -4.7779     0.3943     0.1905 N.pl3   
  15 C15           -3.8553    -0.5465    -0.1631 C.2     
  16 C16           -2.6048     0.0564    -0.1435 C.2     
  17 N17           -2.7990     1.3518     0.2225 N.2     
  18 C18           -6.0751    -0.0354     0.2215 C.2     
  19 C19           -6.3321    -1.3196    -0.0914 C.2     
  20 S20           -4.7535    -2.0388    -0.4586 S.3     
  21 C21           -8.0525    -3.1484     0.7450 C.3     
  22 C22           -9.5103    -3.4235     0.3394 C.3     
  23 N23           -9.7851    -2.4680    -0.7401 N.am    
  24 C24           -8.6694    -1.6497    -0.9270 C.2     
  25 C25           -7.6361    -1.9810    -0.1212 C.2     
  26 C26           -7.1771    -4.3690     0.4540 C.3     
  27 C27           -9.6881    -4.5933    -0.6253 C.3     
  28 C28          -10.0135    -3.4873    -1.5934 C.2     
  29 O29          -10.3642    -3.5064    -2.7545 O.2     
  30 C30          -10.8671    -5.5107    -0.2950 C.3     
  31 C31          -10.9408    -6.6380    -1.3268 C.3     
  32 O32          -10.6861    -6.0686     1.0080 O.3     
  33 H33           -8.7688    -5.1334    -0.8517 H       
  34 H34          -10.2137    -3.3956     1.1716 H       
  35 C35           -8.6237    -0.5503    -1.8925 C.2     
  36 O36           -9.6235    -0.2452    -2.5146 O.2     
  37 O37           -7.4724     0.1247    -2.0923 O.3     
  38 H38            1.2019    -1.4315    -0.7480 H       
  39 H39           -1.1490     2.1315    -0.2876 H       
  40 H40            2.9702     2.4520    -0.6661 H       
  41 H41            3.2202     0.0119    -0.8524 H       
  42 H42            1.6113     4.2908    -0.9284 H       
  43 H43           -0.1560     4.1545    -0.7661 H       
  44 H44            0.7200     6.2108     0.7395 H       
  45 H45            0.9005     5.7961     2.3575 H       
  46 H46           -4.4972     2.5021     0.7147 H       
  47 H47           -6.8747     0.6388     0.4908 H       
  48 H48           -7.9944    -2.8819     1.8003 H       
  49 H49           -7.1052    -4.5160    -0.6236 H       
  50 H50           -6.1809    -4.2083     0.8661 H       
  51 H51           -7.6216    -5.2525     0.9123 H       
  52 H52          -11.7927    -4.9355    -0.3186 H       
  53 H53          -10.0152    -7.2131    -1.3033 H       
  54 H54          -11.7808    -7.2916    -1.0916 H       
  55 H55          -11.0789    -6.2124    -2.3208 H       
  56 H56           -9.8801    -6.5947     1.1021 H       
  57 H57           -7.5401     0.8324    -2.7478 H       
@<TRIPOS>BOND
   1    1    2 ar
   2    1    6 ar
   3    1   38 1
   4    2    3 ar
   5    2   11 1
   6    3    4 ar
   7    3   39 1
   8    4    5 ar
   9    4    7 1
  10    5    6 ar
  11    5   40 1
  12    6   41 1
  13    7    8 1
  14    7   42 1
  15    7   43 1
  16    8    9 2
  17    8   10 am
  18   10   44 1
  19   10   45 1
  20   11   12 2
  21   11   16 1
  22   13   14 1
  23   13   17 2
  24   13   46 1
  25   14   15 1
  26   14   18 1
  27   15   16 2
  28   15   20 1
  29   16   17 1
  30   18   19 2
  31   18   47 1
  32   19   20 1
  33   19   25 1
  34   21   22 1
  35   21   26 1
  36   21   25 1
  37   21   48 1
  38   22   23 1
  39   22   27 1
  40   22   34 1
  41   23   24 1
  42   23   28 am
  43   24   25 2
  44   24   35 1
  45   26   49 1
  46   26   50 1
  47   26   51 1
  48   27   28 1
  49   27   30 1
  50   27   33 1
  51   28   29 2
  52   30   31 1
  53   30   32 1
  54   30   52 1
  55   31   53 1
  56   31   54 1
  57   31   55 1
  58   32   56 1
  59   35   36 2
  60   35   37 1
  61   37   57 1

#	End of record

