#	Name: ASD01148907
#	Creating user name:	WinNT
#	Creation time:	15. 06. 2019 19:03

#	Modifying user name:	WinNT
#	Modification time:	15. 06. 2019 19:03

#	Program:	/corina/corina34_cracker 3.40 0067  02.08.2006

@<TRIPOS>MOLECULE
ASD01148907
  35   36    0    0    0
SMALL
NO_CHARGES


@<TRIPOS>ATOM
   1 C1            -0.0184     1.5028     0.0103 C.2     
   2 C2             0.0021    -0.0041     0.0020 C.3     
   3 C3             1.4513    -0.4944    -0.0145 C.3     
   4 C4             1.4717    -2.0012    -0.0227 C.2     
   5 C5             2.7869    -2.7369    -0.0392 C.3     
   6 O6             1.0236     2.1234     0.0037 O.2     
   7 O7             0.4342    -2.6192    -0.0162 O.2     
   8 C8            -3.7176     3.5720     0.0382 C.ar    
   9 C9            -2.5191     4.2873     0.0368 C.ar    
  10 C10           -1.3214     3.6202     0.0280 C.ar    
  11 C11           -1.3012     2.2204     0.0203 C.ar    
  12 C12           -2.5047     1.5050     0.0216 C.ar    
  13 C13           -3.6999     2.1765     0.0305 C.ar    
  14 C14           -5.0112     4.2956     0.0539 C.ar    
  15 C15           -6.2107     3.5849     0.0553 C.ar    
  16 C16           -7.4119     4.2639     0.0704 C.ar    
  17 C17           -7.4275     5.6472     0.0837 C.ar    
  18 C18           -6.2405     6.3578     0.0819 C.ar    
  19 C19           -5.0332     5.6896     0.0731 C.ar    
  20 H20           -0.4983    -0.3791     0.8948 H       
  21 H21           -0.5153    -0.3696    -0.8850 H       
  22 H22            1.9516    -0.1193    -0.9073 H       
  23 H23            1.9686    -0.1289     0.8726 H       
  24 H24            3.6056    -2.0174    -0.0432 H       
  25 H25            2.8616    -3.3675     0.8467 H       
  26 H26            2.8446    -3.3579    -0.9332 H       
  27 H27           -2.5352     5.3672     0.0423 H       
  28 H28           -0.3943     4.1741     0.0266 H       
  29 H29           -2.4915     0.4251     0.0154 H       
  30 H30           -4.6285     1.6251     0.0319 H       
  31 H31           -6.1998     2.5050     0.0442 H       
  32 H32           -8.3417     3.7145     0.0716 H       
  33 H33           -8.3700     6.1744     0.0952 H       
  34 H34           -6.2589     7.4376     0.0916 H       
  35 H35           -4.1072     6.2453     0.0762 H       
@<TRIPOS>BOND
   1    1    2 1
   2    1    6 2
   3    1   11 1
   4    2    3 1
   5    2   20 1
   6    2   21 1
   7    3    4 1
   8    3   22 1
   9    3   23 1
  10    4    5 1
  11    4    7 2
  12    5   24 1
  13    5   25 1
  14    5   26 1
  15    8    9 ar
  16    8   13 ar
  17    8   14 1
  18    9   10 ar
  19    9   27 1
  20   10   11 ar
  21   10   28 1
  22   11   12 ar
  23   12   13 ar
  24   12   29 1
  25   13   30 1
  26   14   15 ar
  27   14   19 ar
  28   15   16 ar
  29   15   31 1
  30   16   17 ar
  31   16   32 1
  32   17   18 ar
  33   17   33 1
  34   18   19 ar
  35   18   34 1
  36   19   35 1

#	End of record

