#	Name: ASD02039282
#	Creating user name:	WinNT
#	Creation time:	15. 06. 2019 20:18

#	Modifying user name:	WinNT
#	Modification time:	15. 06. 2019 20:18

#	Program:	/corina/corina34_cracker 3.40 0067  02.08.2006

@<TRIPOS>MOLECULE
ASD02039282
  47   49    0    0    0
SMALL
NO_CHARGES


@<TRIPOS>ATOM
   1 C1            -0.2128     1.3556     0.3623 C.ar    
   2 C2             0.0570    -0.0009     0.3869 C.ar    
   3 C3            -0.9782    -0.9174     0.4129 C.ar    
   4 C4            -2.2902    -0.4815     0.4144 C.ar    
   5 C5            -2.5671     0.8866     0.3901 C.ar    
   6 C6            -1.5183     1.8036     0.3698 C.ar    
   7 C7            -3.9719     1.3620     0.3910 C.ar    
   8 N8            -4.9627     0.4846     0.3007 N.ar    
   9 C9            -6.2243     0.8647     0.2985 C.ar    
  10 C10           -6.5626     2.2044     0.3906 C.ar    
  11 C11           -5.5541     3.1561     0.4869 C.ar    
  12 C12           -4.2392     2.7260     0.4925 C.ar    
  13 C13            0.9217     2.3470     0.3336 C.3     
  14 N14            1.3733     2.5326    -1.0476 N.am    
  15 C15            0.6799     3.4799    -1.9240 C.3     
  16 C16            2.4267     1.8317    -1.5121 C.2     
  17 C17            3.0577     0.8033    -0.6668 C.2     
  18 C18            4.0459    -0.0573    -1.0461 C.2     
  19 C19            1.6283     4.6229    -2.2914 C.3     
  20 N20            2.7658     0.5433     0.6333 N.2     
  21 C21            3.5238    -0.4302     1.0483 C.2     
  22 N22            4.3311    -0.8271     0.0303 N.pl3   
  23 O23            2.8563     2.0483    -2.6292 O.2     
  24 C24            5.3303    -1.8969     0.0870 C.3     
  25 F25           -3.3014    -1.3770     0.4389 F       
  26 C26            0.2300     2.7611    -3.1975 C.3     
  27 F27           -7.8596     2.5826     0.3865 F       
  28 H28            1.0805    -0.3457     0.3855 H       
  29 H29           -0.7615    -1.9753     0.4316 H       
  30 H30           -1.7266     2.8631     0.3509 H       
  31 H31           -7.0047     0.1219     0.2235 H       
  32 H32           -5.7917     4.2071     0.5595 H       
  33 H33           -3.4307     3.4382     0.5665 H       
  34 H34            0.5808     3.3011     0.7357 H       
  35 H35            1.7473     1.9721     0.9385 H       
  36 H36           -0.1911     3.8825    -1.4070 H       
  37 H37            4.5113    -0.1139    -2.0190 H       
  38 H38            2.4275     4.2417    -2.9271 H       
  39 H39            1.0760     5.3956    -2.8262 H       
  40 H40            2.0571     5.0455    -1.3828 H       
  41 H41            3.5147    -0.8521     2.0425 H       
  42 H42            4.8674    -2.8419    -0.1970 H       
  43 H43            6.1449    -1.6701    -0.6009 H       
  44 H44            5.7222    -1.9746     1.1012 H       
  45 H45           -0.3602     1.8844    -2.9307 H       
  46 H46           -0.3758     3.4368    -3.8014 H       
  47 H47            1.1053     2.4501    -3.7677 H       
@<TRIPOS>BOND
   1    1    2 ar
   2    1   13 1
   3    1    6 ar
   4    2    3 ar
   5    2   28 1
   6    3    4 ar
   7    3   29 1
   8    4    5 ar
   9    4   25 1
  10    5    6 ar
  11    5    7 1
  12    6   30 1
  13    7    8 ar
  14    7   12 ar
  15    8    9 ar
  16    9   10 ar
  17    9   31 1
  18   10   11 ar
  19   10   27 1
  20   11   12 ar
  21   11   32 1
  22   12   33 1
  23   13   14 1
  24   13   34 1
  25   13   35 1
  26   14   15 1
  27   14   16 am
  28   15   26 1
  29   15   19 1
  30   15   36 1
  31   16   17 1
  32   16   23 2
  33   17   18 2
  34   17   20 1
  35   18   22 1
  36   18   37 1
  37   19   38 1
  38   19   39 1
  39   19   40 1
  40   20   21 2
  41   21   22 1
  42   21   41 1
  43   22   24 1
  44   24   42 1
  45   24   43 1
  46   24   44 1
  47   26   45 1
  48   26   46 1
  49   26   47 1

#	End of record

