#	Name: ASD01880761
#	Creating user name:	WinNT
#	Creation time:	15. 06. 2019 19:41

#	Modifying user name:	WinNT
#	Modification time:	15. 06. 2019 19:41

#	Program:	/corina/corina34_cracker 3.40 0067  02.08.2006

@<TRIPOS>MOLECULE
ASD01880761
  57   60    0    0    0
SMALL
NO_CHARGES


@<TRIPOS>ATOM
   1 N1            -0.0168     1.3115     0.0133 N.ar    
   2 C2             0.0031    -0.0058     0.0027 C.ar    
   3 N3             1.1330    -0.6839    -0.0157 N.ar    
   4 C4             2.3031    -0.0611    -0.0244 C.ar    
   5 C5             2.3315     1.3197    -0.0139 C.ar    
   6 C6             1.1165     2.0074     0.0056 C.ar    
   7 C7             3.6410     2.0654    -0.0233 C.3     
   8 O8             4.7202     1.1342     0.0782 O.3     
   9 C9             5.9771     1.6459     0.0836 C.ar    
  10 C10            7.0737     0.7948     0.1800 C.ar    
  11 C11            8.3446     1.3136     0.1849 C.ar    
  12 C12            8.5455     2.6950     0.0936 C.ar    
  13 C13            7.4407     3.5453    -0.0034 C.ar    
  14 C14            6.1680     3.0191    -0.0129 C.ar    
  15 C15            9.7148     0.6891     0.2742 C.3     
  16 N16           10.6744     1.7982     0.2271 N.am    
  17 C17            9.9956     2.9535     0.1228 C.2     
  18 O18           10.5057     4.0554     0.0611 O.2     
  19 C19           -1.3026    -0.7582     0.0125 C.3     
  20 C20            7.6418     5.0356    -0.1020 C.3     
  21 N21            1.0919     3.3926     0.0163 N.3     
  22 C22            0.5156     3.8949    -1.1620 C.3     
  23 C23            0.6574     5.4297    -1.2501 C.3     
  24 C24           -0.3311     6.0719    -0.3109 C.3     
  25 O25            0.2185     6.3147     1.0003 O.3     
  26 C26            1.0452     5.2695     1.5442 C.3     
  27 C27            0.4805     3.9011     1.2598 C.3     
  28 C28           12.6876     1.5199    -1.1334 C.3     
  29 C29           12.1324     1.6677     0.2846 C.3     
  30 H30            3.2231    -0.6266    -0.0392 H       
  31 H31            3.7324     2.6276    -0.9526 H       
  32 H32            3.6737     2.7529     0.8220 H       
  33 H33            6.9251    -0.2726     0.2512 H       
  34 H34            5.3147     3.6768    -0.0882 H       
  35 H35            9.8178     0.1442     1.2126 H       
  36 H36            9.8763     0.0178    -0.5692 H       
  37 H37           -1.6298    -0.9315    -1.0127 H       
  38 H38           -1.1670    -1.7147     0.5173 H       
  39 H39           -2.0555    -0.1725     0.5400 H       
  40 H40            7.7246     5.3225    -1.1503 H       
  41 H41            6.7917     5.5476     0.3488 H       
  42 H42            8.5547     5.3146     0.4242 H       
  43 H43            1.0092     3.4415    -2.0216 H       
  44 H44           -0.5423     3.6331    -1.1810 H       
  45 H45            1.6696     5.7189    -0.9673 H       
  46 H46            0.4557     5.7563    -2.2703 H       
  47 H47           -0.6553     7.0212    -0.7373 H       
  48 H48           -1.1983     5.4188    -0.2130 H       
  49 H49            2.0408     5.3405     1.1064 H       
  50 H50            1.1231     5.4039     2.6231 H       
  51 H51           -0.6002     3.9694     1.1353 H       
  52 H52            0.7155     3.2290     2.0851 H       
  53 H53           12.2615     0.6316    -1.5997 H       
  54 H54           12.4245     2.4000    -1.7201 H       
  55 H55           13.7724     1.4228    -1.0905 H       
  56 H56           12.5586     2.5560     0.7510 H       
  57 H57           12.3955     0.7876     0.8714 H       
@<TRIPOS>BOND
   1    1    2 ar
   2    1    6 ar
   3    2    3 ar
   4    2   19 1
   5    3    4 ar
   6    4    5 ar
   7    4   30 1
   8    5    6 ar
   9    5    7 1
  10    6   21 1
  11    7    8 1
  12    7   31 1
  13    7   32 1
  14    8    9 1
  15    9   10 ar
  16    9   14 ar
  17   10   11 ar
  18   10   33 1
  19   11   12 ar
  20   11   15 1
  21   12   13 ar
  22   12   17 1
  23   13   14 ar
  24   13   20 1
  25   14   34 1
  26   15   16 1
  27   15   35 1
  28   15   36 1
  29   16   17 am
  30   16   29 1
  31   17   18 2
  32   19   37 1
  33   19   38 1
  34   19   39 1
  35   20   40 1
  36   20   41 1
  37   20   42 1
  38   21   22 1
  39   21   27 1
  40   22   23 1
  41   22   43 1
  42   22   44 1
  43   23   24 1
  44   23   45 1
  45   23   46 1
  46   24   25 1
  47   24   47 1
  48   24   48 1
  49   25   26 1
  50   26   27 1
  51   26   49 1
  52   26   50 1
  53   27   51 1
  54   27   52 1
  55   28   29 1
  56   28   53 1
  57   28   54 1
  58   28   55 1
  59   29   56 1
  60   29   57 1

#	End of record

