#	Name: ASD03090732
#	Creating user name:	WinNT
#	Creation time:	15. 06. 2019 20:29

#	Modifying user name:	WinNT
#	Modification time:	15. 06. 2019 20:29

#	Program:	/corina/corina34_cracker 3.40 0067  02.08.2006

@<TRIPOS>MOLECULE
ASD03090732
  38   39    0    0    0
SMALL
NO_CHARGES


@<TRIPOS>ATOM
   1 N1            -0.1473     1.3406     0.5512 N.am    
   2 C2            -0.1349    -0.0071     0.5594 C.2     
   3 O3             0.7974    -0.6034     1.0631 O.2     
   4 N4            -1.1558    -0.6938     0.0094 N.am    
   5 C5            -1.0872    -2.0919    -0.0919 C.ar    
   6 C6            -2.2452    -2.8567     0.0244 C.ar    
   7 C7            -2.1754    -4.2362    -0.0758 C.ar    
   8 C8            -0.9530    -4.8544    -0.2918 C.ar    
   9 C9             0.2012    -4.0913    -0.4077 C.ar    
  10 C10            0.1330    -2.7126    -0.3136 C.ar    
  11 O11           -0.8846    -6.2093    -0.3898 O.3     
  12 C12           -2.1106    -6.9319    -0.2604 C.3     
  13 O13           -3.4437    -2.2494     0.2367 O.3     
  14 C14           -4.5897    -3.0960     0.3459 C.3     
  15 F15            1.3913    -4.6953    -0.6177 F       
  16 O16            2.0621     3.6679     1.7414 O.3     
  17 N17            1.0352     3.3507     1.1874 N.2     
  18 C18            0.9093     2.0512     1.1204 C.2     
  19 C19            2.0640     1.5083     1.7441 C.2     
  20 C20            2.7712     2.5964     2.1249 C.2     
  21 C21            4.0973     2.6034     2.8406 C.3     
  22 C22            5.2312     2.6054     1.8134 C.3     
  23 H23           -0.8891     1.8163     0.1459 H       
  24 H24           -1.9380    -0.2217    -0.3165 H       
  25 H25           -3.0726    -4.8305     0.0146 H       
  26 H26            1.0308    -2.1199    -0.4088 H       
  27 H27           -2.8024    -6.6164    -1.0414 H       
  28 H28           -1.9151    -7.9998    -0.3580 H       
  29 H29           -2.5496    -6.7307     0.7168 H       
  30 H30           -4.7094    -3.6661    -0.5753 H       
  31 H31           -4.4565    -3.7816     1.1828 H       
  32 H32           -5.4774    -2.4861     0.5137 H       
  33 H33            2.3182     0.4678     1.8826 H       
  34 H34            4.1695     3.4951     3.4632 H       
  35 H35            4.1765     1.7152     3.4675 H       
  36 H36            5.1520     3.4936     1.1865 H       
  37 H37            6.1905     2.6104     2.3311 H       
  38 H38            5.1590     1.7136     1.1908 H       
@<TRIPOS>BOND
   1    1    2 am
   2    1   18 1
   3    1   23 1
   4    2    3 2
   5    2    4 am
   6    4    5 1
   7    4   24 1
   8    5    6 ar
   9    5   10 ar
  10    6    7 ar
  11    6   13 1
  12    7    8 ar
  13    7   25 1
  14    8    9 ar
  15    8   11 1
  16    9   10 ar
  17    9   15 1
  18   10   26 1
  19   11   12 1
  20   12   27 1
  21   12   28 1
  22   12   29 1
  23   13   14 1
  24   14   30 1
  25   14   31 1
  26   14   32 1
  27   16   17 1
  28   16   20 1
  29   17   18 2
  30   18   19 1
  31   19   20 2
  32   19   33 1
  33   20   21 1
  34   21   22 1
  35   21   34 1
  36   21   35 1
  37   22   36 1
  38   22   37 1
  39   22   38 1

#	End of record

