#	Name: ASD01231400
#	Creating user name:	WinNT
#	Creation time:	15. 06. 2019 19:15

#	Modifying user name:	WinNT
#	Modification time:	15. 06. 2019 19:15

#	Program:	/corina/corina34_cracker 3.40 0067  02.08.2006

@<TRIPOS>MOLECULE
ASD01231400
  53   55    0    0    0
SMALL
NO_CHARGES


@<TRIPOS>ATOM
   1 C1            -0.0187     1.5258     0.0104 C.3     
   2 C2             0.0021    -0.0041     0.0020 C.3     
   3 C3             0.7421    -0.5109     1.2415 C.3     
   4 S4            -1.6997    -0.6320     0.0149 S.o2    
   5 O5            -1.7138    -2.0386    -0.1864 O.2     
   6 O6            -2.4435    -0.0351     1.0684 O.2     
   7 N7            -2.3782    -0.0153    -1.3642 N.am    
   8 C8            -0.8543     0.5898    -3.2208 C.3     
   9 C9            -1.8762    -0.4306    -2.6764 C.3     
  10 C10           -2.9975    -0.3744    -3.7354 C.3     
  11 C11           -2.3140     0.0636    -5.0133 C.ar    
  12 C12           -2.7380    -0.0169    -6.3267 C.ar    
  13 C13           -1.9266     0.4592    -7.3533 C.ar    
  14 C14           -0.6856     1.0170    -7.0499 C.ar    
  15 C15           -0.2709     1.0932    -5.7377 C.ar    
  16 C16           -1.0812     0.6183    -4.7175 C.ar    
  17 O17           -1.7057     0.8052   -10.0180 O.3     
  18 B18           -2.4069     0.3678    -8.8453 Du      
  19 O19           -3.6429    -0.1718    -9.3345 O.3     
  20 C20           -3.2812    -0.8792   -10.5393 C.3     
  21 C21           -1.9677    -0.2168   -11.0027 C.3     
  22 C22           -2.1462     0.4099   -12.3870 C.3     
  23 C23           -0.8319    -1.2417   -11.0226 C.3     
  24 C24           -3.0533    -2.3620   -10.2388 C.3     
  25 C25           -4.3677    -0.7104   -11.6032 C.3     
  26 H26            1.0039     1.9031     0.0027 H       
  27 H27           -0.5459     1.8868    -0.8726 H       
  28 H28           -0.5289     1.8773     0.9072 H       
  29 H29            0.5123    -0.3556    -0.8948 H       
  30 H30            0.2319    -0.1594     2.1383 H       
  31 H31            0.7568    -1.6008     1.2356 H       
  32 H32            1.7647    -0.1336     1.2338 H       
  33 H33           -3.1078     0.6209    -1.3031 H       
  34 H34           -1.0380     1.5748    -2.7916 H       
  35 H35            0.1615     0.2630    -2.9984 H       
  36 H36           -1.4393    -1.4279    -2.6273 H       
  37 H37           -3.4454    -1.3597    -3.8646 H       
  38 H38           -3.7565     0.3517    -3.4444 H       
  39 H39           -3.7001    -0.4502    -6.5569 H       
  40 H40           -0.0506     1.3880    -7.8409 H       
  41 H41            0.6907     1.5250    -5.5027 H       
  42 H42           -1.2285     0.9230   -12.6746 H       
  43 H43           -2.3686    -0.3715   -13.1137 H       
  44 H44           -2.9686     1.1247   -12.3589 H       
  45 H45           -0.7291    -1.6894   -10.0341 H       
  46 H46           -1.0571    -2.0196   -11.7521 H       
  47 H47            0.0998    -0.7462   -11.2957 H       
  48 H48           -3.9753    -2.8014    -9.8579 H       
  49 H49           -2.7562    -2.8764   -11.1527 H       
  50 H50           -2.2662    -2.4646    -9.4918 H       
  51 H51           -4.5057     0.3495   -11.8166 H       
  52 H52           -4.0677    -1.2284   -12.5142 H       
  53 H53           -5.3036    -1.1322   -11.2369 H       
@<TRIPOS>BOND
   1    1    2 1
   2    1   26 1
   3    1   27 1
   4    1   28 1
   5    2    3 1
   6    2    4 1
   7    2   29 1
   8    3   30 1
   9    3   31 1
  10    3   32 1
  11    4    5 2
  12    4    6 2
  13    4    7 am
  14    7    9 1
  15    7   33 1
  16    8    9 1
  17    8   16 1
  18    8   34 1
  19    8   35 1
  20    9   10 1
  21    9   36 1
  22   10   11 1
  23   10   37 1
  24   10   38 1
  25   11   12 ar
  26   11   16 ar
  27   12   13 ar
  28   12   39 1
  29   13   14 ar
  30   13   18 1
  31   14   15 ar
  32   14   40 1
  33   15   16 ar
  34   15   41 1
  35   17   18 1
  36   17   21 1
  37   18   19 1
  38   19   20 1
  39   20   21 1
  40   20   24 1
  41   20   25 1
  42   21   22 1
  43   21   23 1
  44   22   42 1
  45   22   43 1
  46   22   44 1
  47   23   45 1
  48   23   46 1
  49   23   47 1
  50   24   48 1
  51   24   49 1
  52   24   50 1
  53   25   51 1
  54   25   52 1
  55   25   53 1

#	End of record

