#	Name: ASD01150804
#	Creating user name:	WinNT
#	Creation time:	15. 06. 2019 19:05

#	Modifying user name:	WinNT
#	Modification time:	15. 06. 2019 19:05

#	Program:	/corina/corina34_cracker 3.40 0067  02.08.2006

@<TRIPOS>MOLECULE
ASD01150804
  56   58    0    0    0
SMALL
NO_CHARGES


@<TRIPOS>ATOM
   1 O1            -0.0768     1.1915    -0.2797 O.3     
   2 C2             0.0531    -0.2410    -0.3424 C.3     
   3 C3             1.5553    -0.5186    -0.1131 C.3     
   4 O4             2.0081     0.6809     0.5621 O.3     
   5 C5             1.2379     1.7228    -0.0659 C.3     
   6 C6             1.8739     2.1051    -1.4008 C.3     
   7 C7             1.0769     3.2503    -2.0313 C.3     
   8 N8             1.0601     4.3977    -1.1151 N.3     
   9 C9             0.3945     4.0604     0.1497 C.3     
  10 C10            1.1693     2.9418     0.8517 C.3     
  11 C11            0.4311     5.5659    -1.7458 C.3     
  12 C12            1.3139     8.0951     0.7769 C.ar    
  13 N13            1.3994     7.1183    -0.1039 N.ar    
  14 C14            0.3238     6.6829    -0.7398 C.ar    
  15 C15           -0.9031     7.2684    -0.4686 C.ar    
  16 C16           -0.9529     8.2925     0.4637 C.ar    
  17 N17            0.1649     8.6750     1.0601 N.ar    
  18 C18           -2.2621     8.9619     0.7935 C.3     
  19 S19            1.4412     6.1119    -3.1501 S.3     
  20 C20           -0.8224     6.3624    -4.6652 C.3     
  21 C21            0.4778     5.5600    -4.5847 C.3     
  22 C22            1.2924     5.7794    -5.8611 C.3     
  23 C23            2.5314     4.8820    -5.8359 C.3     
  24 C24            3.3460     5.1014    -7.1123 C.3     
  25 C25            4.5849     4.2041    -7.0872 C.3     
  26 H26           -0.5424    -0.7097     0.4411 H       
  27 H27           -0.2542    -0.6064    -1.3223 H       
  28 H28            1.6932    -1.3939     0.5218 H       
  29 H29            2.0736    -0.6450    -1.0637 H       
  30 H30            2.9025     2.4256    -1.2352 H       
  31 H31            1.8637     1.2437    -2.0686 H       
  32 H32            1.5436     3.5431    -2.9718 H       
  33 H33            0.0551     2.9210    -2.2199 H       
  34 H34            0.3663     4.9410     0.7915 H       
  35 H35           -0.6228     3.7258    -0.0531 H       
  36 H36            0.6606     2.6724     1.7774 H       
  37 H37            2.1791     3.2847     1.0773 H       
  38 H38           -0.5648     5.2967    -2.0974 H       
  39 H39            2.2086     8.4259     1.2834 H       
  40 H40           -1.7985     6.9347    -0.9719 H       
  41 H41           -2.7412     8.4360     1.6193 H       
  42 H42           -2.0787     9.9975     1.0799 H       
  43 H43           -2.9135     8.9364    -0.0801 H       
  44 H44           -1.4388     5.9750    -5.4764 H       
  45 H45           -1.3634     6.2730    -3.7232 H       
  46 H46           -0.5912     7.4108    -4.8534 H       
  47 H47            0.2449     4.5003    -4.4800 H       
  48 H48            0.6816     5.5313    -6.7291 H       
  49 H49            1.6009     6.8231    -5.9202 H       
  50 H50            3.1422     5.1301    -4.9679 H       
  51 H51            2.2229     3.8383    -5.7768 H       
  52 H52            2.7352     4.8533    -7.9803 H       
  53 H53            3.6545     6.1452    -7.1715 H       
  54 H54            5.1957     4.4522    -6.2192 H       
  55 H55            4.2764     3.1603    -7.0280 H       
  56 H56            5.1653     4.3604    -7.9965 H       
@<TRIPOS>BOND
   1    1    2 1
   2    1    5 1
   3    2    3 1
   4    2   26 1
   5    2   27 1
   6    3    4 1
   7    3   28 1
   8    3   29 1
   9    4    5 1
  10    5    6 1
  11    5   10 1
  12    6    7 1
  13    6   30 1
  14    6   31 1
  15    7    8 1
  16    7   32 1
  17    7   33 1
  18    8    9 1
  19    8   11 1
  20    9   10 1
  21    9   34 1
  22    9   35 1
  23   10   36 1
  24   10   37 1
  25   11   14 1
  26   11   19 1
  27   11   38 1
  28   12   13 ar
  29   12   17 ar
  30   12   39 1
  31   13   14 ar
  32   14   15 ar
  33   15   16 ar
  34   15   40 1
  35   16   17 ar
  36   16   18 1
  37   18   41 1
  38   18   42 1
  39   18   43 1
  40   19   21 1
  41   20   21 1
  42   20   44 1
  43   20   45 1
  44   20   46 1
  45   21   22 1
  46   21   47 1
  47   22   23 1
  48   22   48 1
  49   22   49 1
  50   23   24 1
  51   23   50 1
  52   23   51 1
  53   24   25 1
  54   24   52 1
  55   24   53 1
  56   25   54 1
  57   25   55 1
  58   25   56 1

#	End of record

