#	Name: ASD01890258
#	Creating user name:	WinNT
#	Creation time:	15. 06. 2019 19:50

#	Modifying user name:	WinNT
#	Modification time:	15. 06. 2019 19:50

#	Program:	/corina/corina34_cracker 3.40 0067  02.08.2006

@<TRIPOS>MOLECULE
ASD01890258
  28   29    0    0    0
SMALL
NO_CHARGES


@<TRIPOS>ATOM
   1 C1            -0.0172     1.4139     0.0098 C.2     
   2 C2             0.0021    -0.0041     0.0020 C.2     
   3 C3             1.1821    -0.6641    -0.0128 C.2     
   4 O4             1.0288     2.0369     0.0032 O.2     
   5 C5            -1.3081     2.1360     0.0199 C.ar    
   6 C6            -1.3306     3.5319     0.0276 C.ar    
   7 C7            -2.5379     4.1991     0.0370 C.ar    
   8 C8            -3.7249     3.4879     0.0388 C.ar    
   9 C9            -3.7097     2.1043     0.0312 C.ar    
  10 C10           -2.5094     1.4247     0.0159 C.ar    
  11 C11            1.2020    -2.1332    -0.0209 C.ar    
  12 C12            2.4234    -2.8217    -0.0362 C.ar    
  13 C13            2.4319    -4.2029    -0.0438 C.ar    
  14 C14            1.2391    -4.9054    -0.0367 C.ar    
  15 C15            0.0286    -4.2308    -0.0215 C.ar    
  16 C16            0.0020    -2.8534    -0.0075 C.ar    
  17 F17            3.5878    -2.1365    -0.0441 F       
  18 Br18           1.2616    -6.7962    -0.0484 Br      
  19 H19           -0.9258    -0.5567     0.0079 H       
  20 H20            2.1099    -0.1115    -0.0187 H       
  21 H21           -0.4048     4.0881     0.0265 H       
  22 H22           -2.5567     5.2789     0.0433 H       
  23 H23           -4.6675     4.0152     0.0465 H       
  24 H24           -4.6397     1.5552     0.0326 H       
  25 H25           -2.4989     0.3448     0.0055 H       
  26 H26            3.3711    -4.7360    -0.0556 H       
  27 H27           -0.8972    -4.7869    -0.0164 H       
  28 H28           -0.9428    -2.3304     0.0092 H       
@<TRIPOS>BOND
   1    1    2 1
   2    1    4 2
   3    1    5 1
   4    2    3 2
   5    2   19 1
   6    3   11 1
   7    3   20 1
   8    5    6 ar
   9    5   10 ar
  10    6    7 ar
  11    6   21 1
  12    7    8 ar
  13    7   22 1
  14    8    9 ar
  15    8   23 1
  16    9   10 ar
  17    9   24 1
  18   10   25 1
  19   11   12 ar
  20   11   16 ar
  21   12   13 ar
  22   12   17 1
  23   13   14 ar
  24   13   26 1
  25   14   15 ar
  26   14   18 1
  27   15   16 ar
  28   15   27 1
  29   16   28 1

#	End of record

