#	Name: ASD01810750
#	Creating user name:	WinNT
#	Creation time:	15. 06. 2019 19:25

#	Modifying user name:	WinNT
#	Modification time:	15. 06. 2019 19:25

#	Program:	/corina/corina34_cracker 3.40 0067  02.08.2006

@<TRIPOS>MOLECULE
ASD01810750
  31   31    0    0    0
SMALL
NO_CHARGES


@<TRIPOS>ATOM
   1 C1             0.2147     1.4636     0.1492 C.2     
   2 C2             0.1147    -0.0084     0.0703 C.ar    
   3 C3             1.2008    -0.7608    -0.3845 C.ar    
   4 C4             1.1080    -2.1358    -0.4590 C.ar    
   5 C5            -0.0570    -2.7768    -0.0845 C.ar    
   6 C6            -1.1488    -2.0372     0.3719 C.ar    
   7 C7            -1.0611    -0.6504     0.4548 C.ar    
   8 O8             1.2756     2.0129    -0.0701 O.2     
   9 O9            -0.8721     2.1968     0.4590 O.3     
  10 C10           -0.1493    -4.2786    -0.1697 C.3     
  11 C11            2.4755    -0.0696    -0.7950 C.3     
  12 C12           -2.3966    -2.7269     0.7727 C.2     
  13 S13           -3.8205    -1.7869     1.2125 S.3     
  14 C14           -4.9770    -3.1267     1.5911 C.3     
  15 N15           -2.4415    -4.0294     0.8001 N.2     
  16 C16           -0.7003     3.6374     0.5185 C.3     
  17 H17            1.9497    -2.7132    -0.8118 H       
  18 H18           -1.9019    -0.0742     0.8117 H       
  19 H19            0.0465    -4.7109     0.8116 H       
  20 H20           -1.1486    -4.5631    -0.4992 H       
  21 H21            0.5874    -4.6480    -0.8830 H       
  22 H22            3.0739     0.1447     0.0904 H       
  23 H23            3.0395    -0.7166    -1.4669 H       
  24 H24            2.2350     0.8630    -1.3055 H       
  25 H25           -4.5776    -3.7325     2.4045 H       
  26 H26           -5.9367    -2.7048     1.8897 H       
  27 H27           -5.1133    -3.7498     0.7072 H       
  28 H28           -3.2587    -4.4811     1.0626 H       
  29 H29           -0.3666     4.0039    -0.4522 H       
  30 H30           -1.6497     4.1061     0.7772 H       
  31 H31            0.0445     3.8834     1.2754 H       
@<TRIPOS>BOND
   1    1    2 1
   2    1    8 2
   3    1    9 1
   4    2    3 ar
   5    2    7 ar
   6    3    4 ar
   7    3   11 1
   8    4    5 ar
   9    4   17 1
  10    5    6 ar
  11    5   10 1
  12    6    7 ar
  13    6   12 1
  14    7   18 1
  15    9   16 1
  16   10   19 1
  17   10   20 1
  18   10   21 1
  19   11   22 1
  20   11   23 1
  21   11   24 1
  22   12   13 1
  23   12   15 2
  24   13   14 1
  25   14   25 1
  26   14   26 1
  27   14   27 1
  28   15   28 1
  29   16   29 1
  30   16   30 1
  31   16   31 1

#	End of record

