#	Name: ASD08070175
#	Creating user name:	WinNT
#	Creation time:	15. 06. 2019 21:14

#	Modifying user name:	WinNT
#	Modification time:	15. 06. 2019 21:14

#	Program:	/corina/corina34_cracker 3.40 0067  02.08.2006

@<TRIPOS>MOLECULE
ASD08070175
  35   36    0    0    0
SMALL
NO_CHARGES


@<TRIPOS>ATOM
   1 C1            -0.0167     1.3787     0.0096 C.ar    
   2 C2             0.0021    -0.0041     0.0020 C.ar    
   3 C3             1.2057    -0.6813    -0.0131 C.ar    
   4 C4             2.4060     0.0340    -0.0207 C.ar    
   5 C5             2.3795     1.4294    -0.0129 C.ar    
   6 C6             1.1693     2.0937     0.0021 C.ar    
   7 C7             3.6976    -0.6838    -0.0364 C.2     
   8 N8             4.8535     0.0092    -0.0437 N.am    
   9 O9             3.7175    -1.8992    -0.0427 O.2     
  10 C10            6.5053    -1.0527    -1.5015 C.3     
  11 C11            6.1340    -0.7024    -0.0592 C.3     
  12 C12            7.3410     1.4744    -0.2773 C.3     
  13 C13            7.2205     0.1896     0.5448 C.3     
  14 Cl14           1.1342     3.8293     0.0118 Cl      
  15 C15            6.8492     0.5400     1.9871 C.3     
  16 C16            6.6258     0.2320    -2.3236 C.3     
  17 C17            7.7123     1.1240    -1.7196 C.3     
  18 Cl18           1.2272    -2.4172    -0.0220 Cl      
  19 H19           -0.9606     1.9035     0.0169 H       
  20 H20           -0.9265    -0.5556     0.0083 H       
  21 H21            3.3036     1.9883    -0.0187 H       
  22 H22            4.8376     0.9790    -0.0386 H       
  23 H23            7.4580    -1.5821    -1.5131 H       
  24 H24            5.7313    -1.6882    -1.9318 H       
  25 H25            6.0482    -1.6177     0.5265 H       
  26 H26            6.3882     2.0038    -0.2657 H       
  27 H27            8.1150     2.1098     0.1531 H       
  28 H28            8.1732    -0.3398     0.5333 H       
  29 H29            5.8965     1.0694     1.9987 H       
  30 H30            6.7634    -0.3753     2.5728 H       
  31 H31            7.6232     1.1754     2.4175 H       
  32 H32            6.8903    -0.0176    -3.3511 H       
  33 H33            5.6731     0.7614    -2.3120 H       
  34 H34            7.7981     2.0393    -2.3052 H       
  35 H35            8.6650     0.5946    -1.7311 H       
@<TRIPOS>BOND
   1    1    2 ar
   2    1    6 ar
   3    1   19 1
   4    2    3 ar
   5    2   20 1
   6    3    4 ar
   7    3   18 1
   8    4    5 ar
   9    4    7 1
  10    5    6 ar
  11    5   21 1
  12    6   14 1
  13    7    8 am
  14    7    9 2
  15    8   11 1
  16    8   22 1
  17   10   11 1
  18   10   16 1
  19   10   23 1
  20   10   24 1
  21   11   13 1
  22   11   25 1
  23   12   13 1
  24   12   17 1
  25   12   26 1
  26   12   27 1
  27   13   15 1
  28   13   28 1
  29   15   29 1
  30   15   30 1
  31   15   31 1
  32   16   17 1
  33   16   32 1
  34   16   33 1
  35   17   34 1
  36   17   35 1

#	End of record

