#	Name: ASD00960146
#	Creating user name:	WinNT
#	Creation time:	15. 06. 2019 18:53

#	Modifying user name:	WinNT
#	Modification time:	15. 06. 2019 18:53

#	Program:	/corina/corina34_cracker 3.40 0067  02.08.2006

@<TRIPOS>MOLECULE
ASD00960146
  37   39    0    0    0
SMALL
NO_CHARGES


@<TRIPOS>ATOM
   1 C1            -0.0187     1.5258     0.0104 C.3     
   2 C2            -0.7939     2.0498     1.2396 C.3     
   3 O3            -2.1388     2.2699     0.7613 O.3     
   4 C4            -1.9852     2.8481    -0.5533 C.3     
   5 C5            -3.2663     2.6636    -1.3692 C.3     
   6 C6            -0.7904     1.0203     2.3401 C.2     
   7 C7             0.1914     0.8608     3.2557 C.2     
   8 N8            -1.7743     0.1152     2.5679 N.pl3   
   9 C9            -1.4268    -0.6550     3.6505 C.2     
  10 C10           -0.1829    -0.2032     4.1069 C.2     
  11 N11           -2.9962    -0.1467     1.9307 N.2     
  12 C12           -3.7710    -1.1025     2.3694 C.2     
  13 N13           -3.4450    -1.8541     3.4168 N.2     
  14 C14           -2.3102    -1.6710     4.0721 C.2     
  15 N15           -1.9941    -2.4654     5.1570 N.pl3   
  16 C16           -0.8173     2.0630    -1.1982 C.3     
  17 O17           -0.0073     2.9327    -1.9916 O.3     
  18 C18            0.0021    -0.0041     0.0020 C.3     
  19 O19           -4.3194     3.4310    -0.7825 O.3     
  20 O20            1.3133     2.0434     0.0005 O.3     
  21 C21            0.5621    -0.7170     5.2166 C.1     
  22 N22            1.1532    -1.1246     6.0970 N.1     
  23 H23           -0.3588     2.9849     1.5922 H       
  24 H24           -1.7328     3.9056    -0.4756 H       
  25 H25           -3.0974     3.0006    -2.3919 H       
  26 H26           -3.5446     1.6097    -1.3752 H       
  27 H27            1.0989     1.4422     3.3243 H       
  28 H28           -4.7077    -1.2882     1.8649 H       
  29 H29           -2.6055    -3.1622     5.4424 H       
  30 H30           -1.1606    -2.3265     5.6334 H       
  31 H31           -1.1981     1.2386    -1.8010 H       
  32 H32           -0.4782     3.3453    -2.7286 H       
  33 H33            0.5184    -0.3653     0.8914 H       
  34 H34           -1.0206    -0.3813    -0.0028 H       
  35 H35            0.5232    -0.3555    -0.8885 H       
  36 H36           -5.1636     3.3615    -1.2490 H       
  37 H37            1.8359     1.7695    -0.7656 H       
@<TRIPOS>BOND
   1    1   18 1
   2    1   20 1
   3    1    2 1
   4    1   16 1
   5    2    3 1
   6    2    6 1
   7    2   23 1
   8    3    4 1
   9    4   16 1
  10    4    5 1
  11    4   24 1
  12    5   19 1
  13    5   25 1
  14    5   26 1
  15    6    7 2
  16    6    8 1
  17    7   10 1
  18    7   27 1
  19    8    9 1
  20    8   11 1
  21    9   10 2
  22    9   14 1
  23   10   21 1
  24   11   12 2
  25   12   13 1
  26   12   28 1
  27   13   14 2
  28   14   15 1
  29   15   29 1
  30   15   30 1
  31   16   17 1
  32   16   31 1
  33   17   32 1
  34   18   33 1
  35   18   34 1
  36   18   35 1
  37   19   36 1
  38   20   37 1
  39   21   22 3

#	End of record

