#	Name: ASD08390007
#	Creating user name:	WinNT
#	Creation time:	15. 06. 2019 21:19

#	Modifying user name:	WinNT
#	Modification time:	15. 06. 2019 21:19

#	Program:	/corina/corina34_cracker 3.40 0067  02.08.2006

@<TRIPOS>MOLECULE
ASD08390007
  62   65    0    0    0
SMALL
NO_CHARGES


@<TRIPOS>ATOM
   1 N1             0.0723     1.7340    -0.3913 N.2     
   2 C2            -0.0171     0.2690    -0.3219 C.3     
   3 C3             1.3552    -0.1641     0.2309 C.3     
   4 N4             2.0655     1.1131     0.4110 N.pl3   
   5 C5             1.2311     2.1289     0.0218 C.2     
   6 C6            -1.1369    -0.1553     0.6305 C.3     
   7 C7             1.6241     3.5558     0.0706 C.ar    
   8 C8             1.3110     4.4049    -0.9905 C.ar    
   9 C9             1.6794     5.7337    -0.9390 C.ar    
  10 C10            2.3584     6.2239     0.1621 C.ar    
  11 C11            2.6718     5.3866     1.2178 C.ar    
  12 C12            2.3036     4.0572     1.1804 C.ar    
  13 C13            1.1967    -0.8750     1.5502 C.ar    
  14 C14            1.2333    -2.2559     1.6000 C.ar    
  15 C15            1.0878    -2.9080     2.8102 C.ar    
  16 C16            0.9063    -2.1791     3.9706 C.ar    
  17 C17            0.8706    -0.7981     3.9209 C.ar    
  18 C18            1.0204    -0.1459     2.7113 C.ar    
  19 C19            4.4110     1.0964    -0.2117 C.ar    
  20 C20            4.7408     2.1732    -1.0133 C.ar    
  21 C21            5.6446     2.0141    -2.0471 C.ar    
  22 C22            6.2188     0.7782    -2.2791 C.ar    
  23 C23            5.8897    -0.2984    -1.4769 C.ar    
  24 C24            4.9848    -0.1396    -0.4440 C.ar    
  25 C25            3.4304     1.2713     0.9192 C.3     
  26 C26           -0.2442    -0.3117    -1.6939 C.2     
  27 O27            0.2721    -1.3607    -1.9989 O.2     
  28 O28           -1.0201     0.3363    -2.5770 O.3     
  29 C29           -2.4760     0.3701     0.1093 C.3     
  30 C30           -3.5958    -0.0541     1.0617 C.3     
  31 C31           -4.9148     0.4634     0.5484 C.2     
  32 O32           -4.9551     1.1056    -0.4742 O.2     
  33 O33           -6.0449     0.2108     1.2273 O.3     
  34 C34           -7.2785     0.7403     0.6741 C.3     
  35 H35            1.8771    -0.7963    -0.4875 H       
  36 H36           -1.1714    -1.2431     0.6890 H       
  37 H37           -0.9461     0.2561     1.6217 H       
  38 H38            0.7816     4.0231    -1.8509 H       
  39 H39            1.4375     6.3922    -1.7601 H       
  40 H40            2.6453     7.2645     0.1976 H       
  41 H41            3.2020     5.7751     2.0747 H       
  42 H42            2.5449     3.4055     2.0071 H       
  43 H43            1.3751    -2.8254     0.6934 H       
  44 H44            1.1157    -3.9869     2.8490 H       
  45 H45            0.7919    -2.6886     4.9160 H       
  46 H46            0.7284    -0.2286     4.8275 H       
  47 H47            0.9963     0.9332     2.6730 H       
  48 H48            4.2922     3.1388    -0.8321 H       
  49 H49            5.9018     2.8552    -2.6738 H       
  50 H50            6.9244     0.6537    -3.0872 H       
  51 H51            6.3378    -1.2641    -1.6586 H       
  52 H52            4.7271    -0.9809     0.1823 H       
  53 H53            3.5451     2.2665     1.3488 H       
  54 H54            3.6221     0.5204     1.6857 H       
  55 H55           -1.1362    -0.0753    -3.4442 H       
  56 H56           -2.4416     1.4580     0.0508 H       
  57 H57           -2.6668    -0.0412    -0.8819 H       
  58 H58           -3.6303    -1.1420     1.1202 H       
  59 H59           -3.4050     0.3572     2.0529 H       
  60 H60           -7.4368     0.3272    -0.3221 H       
  61 H61           -8.1134     0.4649     1.3185 H       
  62 H62           -7.2115     1.8264     0.6106 H       
@<TRIPOS>BOND
   1    1    2 1
   2    1    5 2
   3    2    6 1
   4    2    3 1
   5    2   26 1
   6    3    4 1
   7    3   13 1
   8    3   35 1
   9    4    5 1
  10    4   25 1
  11    5    7 1
  12    6   29 1
  13    6   36 1
  14    6   37 1
  15    7    8 ar
  16    7   12 ar
  17    8    9 ar
  18    8   38 1
  19    9   10 ar
  20    9   39 1
  21   10   11 ar
  22   10   40 1
  23   11   12 ar
  24   11   41 1
  25   12   42 1
  26   13   14 ar
  27   13   18 ar
  28   14   15 ar
  29   14   43 1
  30   15   16 ar
  31   15   44 1
  32   16   17 ar
  33   16   45 1
  34   17   18 ar
  35   17   46 1
  36   18   47 1
  37   19   20 ar
  38   19   24 ar
  39   19   25 1
  40   20   21 ar
  41   20   48 1
  42   21   22 ar
  43   21   49 1
  44   22   23 ar
  45   22   50 1
  46   23   24 ar
  47   23   51 1
  48   24   52 1
  49   25   53 1
  50   25   54 1
  51   26   27 2
  52   26   28 1
  53   28   55 1
  54   29   30 1
  55   29   56 1
  56   29   57 1
  57   30   31 1
  58   30   58 1
  59   30   59 1
  60   31   32 2
  61   31   33 1
  62   33   34 1
  63   34   60 1
  64   34   61 1
  65   34   62 1

#	End of record

