#	Name: ASD01410576
#	Creating user name:	WinNT
#	Creation time:	15. 06. 2019 19:18

#	Modifying user name:	WinNT
#	Modification time:	15. 06. 2019 19:18

#	Program:	/corina/corina34_cracker 3.40 0067  02.08.2006

@<TRIPOS>MOLECULE
ASD01410576
  86   89    0    0    0
SMALL
NO_CHARGES


@<TRIPOS>ATOM
   1 C1             5.0666     6.7663    -3.4562 C.ar    
   2 C2             5.4627     6.0070    -4.5415 C.ar    
   3 C3             6.1212     4.8068    -4.3454 C.ar    
   4 C4             6.3843     4.3634    -3.0641 C.ar    
   5 C5             5.9877     5.1237    -1.9729 C.ar    
   6 C6             5.3277     6.3277    -2.1725 C.ar    
   7 O7             6.2454     4.6898    -0.7113 O.3     
   8 C8             6.8126     3.4628    -0.5615 C.ar    
   9 C9             8.1926     3.3169    -0.6788 C.ar    
  10 C10            8.7784     2.0736    -0.5276 C.ar    
  11 C11            7.9931     0.9625    -0.2583 C.ar    
  12 C12            6.6016     1.1039    -0.1391 C.ar    
  13 C13            6.0187     2.3660    -0.2878 C.ar    
  14 N14            8.5839    -0.2911    -0.1069 N.am    
  15 C15            8.9750    -0.7088     1.1134 C.2     
  16 C16            8.7798    -1.1544    -1.2742 C.3     
  17 O17            9.5664    -1.7608     1.2335 O.2     
  18 C18            8.6773     0.1313     2.3286 C.3     
  19 C19            5.1760     6.4878    -5.9407 C.3     
  20 C20            9.8182    -0.0100     3.3382 C.3     
  21 C21            9.5159     0.8429     4.5719 C.3     
  22 C22            8.2083     0.3706     5.2106 C.3     
  23 C23            7.0674     0.5118     4.2010 C.3     
  24 C24            7.3697    -0.3411     2.9672 C.3     
  25 C25            7.9061     1.2235     6.4443 C.3     
  26 C26            8.0626    -0.5488    -2.4824 C.3     
  27 O27           10.9237    -1.9615    -0.5043 O.3     
  28 C28           10.2751    -1.2732    -1.5755 C.3     
  29 C29           12.3313    -2.1267    -0.6872 C.3     
  30 O30            6.6529    -0.5480    -2.2485 O.3     
  31 C31            5.8858     0.0001    -3.3223 C.3     
  32 F32            8.9627     4.3953    -0.9419 F       
  33 N33            6.2952     7.3056    -6.4149 N.pl3   
  34 C34            6.2579     7.8664    -7.6945 C.ar    
  35 C35            7.3141     8.6441    -8.1549 C.ar    
  36 N36            7.2816     9.1750    -9.3616 N.ar    
  37 C37            6.2584     8.9926   -10.1735 C.ar    
  38 C38            5.1713     8.2313    -9.7869 C.ar    
  39 C39            5.1648     7.6497    -8.5294 C.ar    
  40 Br40           8.8115     8.9442    -7.0398 Br      
  41 C41            6.2743     9.6237   -11.5419 C.3     
  42 C42            4.8961     7.1562    -0.9899 C.3     
  43 F43            4.2561     8.3154    -1.4414 F       
  44 F44            4.0129     6.4142    -0.1982 F       
  45 F45            6.0184     7.5080    -0.2324 F       
  46 C46            5.7603    -0.0706     0.1463 C.2     
  47 O47            6.2762    -1.1495     0.3624 O.2     
  48 O48            4.4183     0.0511     0.1678 O.3     
  49 H49            4.5564     7.7054    -3.6122 H       
  50 H50            6.4296     4.2155    -5.1949 H       
  51 H51            6.8979     3.4257    -2.9115 H       
  52 H52            9.8492     1.9675    -0.6198 H       
  53 H53            4.9487     2.4818    -0.1970 H       
  54 H54            8.3712    -2.1435    -1.0673 H       
  55 H55            8.5808     1.1760     2.0332 H       
  56 H56            5.0478     5.6298    -6.6006 H       
  57 H57            4.2642     7.0850    -5.9400 H       
  58 H58            9.9147    -1.0548     3.6335 H       
  59 H59           10.7497     0.3265     2.8832 H       
  60 H60           10.3287     0.7422     5.2912 H       
  61 H61            9.4194     1.8877     4.2766 H       
  62 H62            8.3048    -0.6742     5.5059 H       
  63 H63            6.1358     0.1754     4.6560 H       
  64 H64            6.9709     1.5566     3.9056 H       
  65 H65            6.5569    -0.2404     2.2480 H       
  66 H66            7.4662    -1.3858     3.2626 H       
  67 H67            7.8096     2.2682     6.1490 H       
  68 H68            6.9745     0.8870     6.8993 H       
  69 H69            8.7189     1.1228     7.1636 H       
  70 H70            8.4064     0.4744    -2.6337 H       
  71 H71            8.2832    -1.1412    -3.3704 H       
  72 H72           10.4160    -1.8289    -2.5026 H       
  73 H73           10.7049    -0.2770    -1.6803 H       
  74 H74           12.5147    -2.7001    -1.5958 H       
  75 H75           12.8037    -1.1482    -0.7735 H       
  76 H76           12.7490    -2.6577     0.1681 H       
  77 H77            6.0612    -0.5810    -4.2277 H       
  78 H78            4.8266    -0.0355    -3.0673 H       
  79 H79            6.1844     1.0347    -3.4910 H       
  80 H80            7.0620     7.4579    -5.8408 H       
  81 H81            4.3382     8.0882   -10.4590 H       
  82 H82            4.3287     7.0497    -8.2017 H       
  83 H83            6.7309     8.9360   -12.2538 H       
  84 H84            5.2529     9.8431   -11.8527 H       
  85 H85            6.8507    10.5482   -11.5090 H       
  86 H86            3.9081    -0.7477     0.3597 H       
@<TRIPOS>BOND
   1    1    2 ar
   2    1    6 ar
   3    1   49 1
   4    2    3 ar
   5    2   19 1
   6    3    4 ar
   7    3   50 1
   8    4    5 ar
   9    4   51 1
  10    5    6 ar
  11    5    7 1
  12    6   42 1
  13    7    8 1
  14    8    9 ar
  15    8   13 ar
  16    9   10 ar
  17    9   32 1
  18   10   11 ar
  19   10   52 1
  20   11   12 ar
  21   11   14 1
  22   12   13 ar
  23   12   46 1
  24   13   53 1
  25   14   15 am
  26   14   16 1
  27   15   17 2
  28   15   18 1
  29   16   26 1
  30   16   28 1
  31   16   54 1
  32   18   20 1
  33   18   24 1
  34   18   55 1
  35   19   33 1
  36   19   56 1
  37   19   57 1
  38   20   21 1
  39   20   58 1
  40   20   59 1
  41   21   22 1
  42   21   60 1
  43   21   61 1
  44   22   23 1
  45   22   25 1
  46   22   62 1
  47   23   24 1
  48   23   63 1
  49   23   64 1
  50   24   65 1
  51   24   66 1
  52   25   67 1
  53   25   68 1
  54   25   69 1
  55   26   30 1
  56   26   70 1
  57   26   71 1
  58   27   28 1
  59   27   29 1
  60   28   72 1
  61   28   73 1
  62   29   74 1
  63   29   75 1
  64   29   76 1
  65   30   31 1
  66   31   77 1
  67   31   78 1
  68   31   79 1
  69   33   34 1
  70   33   80 1
  71   34   35 ar
  72   34   39 ar
  73   35   36 ar
  74   35   40 1
  75   36   37 ar
  76   37   38 ar
  77   37   41 1
  78   38   39 ar
  79   38   81 1
  80   39   82 1
  81   41   83 1
  82   41   84 1
  83   41   85 1
  84   42   43 1
  85   42   44 1
  86   42   45 1
  87   46   47 2
  88   46   48 1
  89   48   86 1

#	End of record

