#	Name: ASD02030604
#	Creating user name:	WinNT
#	Creation time:	15. 06. 2019 20:15

#	Modifying user name:	WinNT
#	Modification time:	15. 06. 2019 20:15

#	Program:	/corina/corina34_cracker 3.40 0067  02.08.2006

@<TRIPOS>MOLECULE
ASD02030604
  64   67    0    0    0
SMALL
NO_CHARGES


@<TRIPOS>ATOM
   1 C1             0.1616     1.1533    -0.0918 C.ar    
   2 C2             0.0202    -0.2181    -0.0959 C.ar    
   3 C3             1.1474    -1.0244    -0.1653 C.ar    
   4 C4             2.4028    -0.4447    -0.2239 C.ar    
   5 C5             2.5433     0.9371    -0.2132 C.ar    
   6 C6             1.4216     1.7339    -0.1562 C.ar    
   7 C7             1.5007     3.2400    -0.1748 C.3     
   8 C8             3.9413     1.4961    -0.2505 C.3     
   9 C9             3.9337     2.9495    -0.7214 C.3     
  10 N10            2.8897     3.6644     0.0298 N.am    
  11 C11            1.0034     3.7593    -1.5253 C.3     
  12 O12            1.7435     3.1363    -2.5771 O.3     
  13 C13            1.4237     3.4901    -3.8505 C.ar    
  14 C14            3.1982     4.6695     0.8730 C.2     
  15 O15            4.3618     4.9525     1.0813 O.2     
  16 C16            2.1213     5.4278     1.5447 C.ar    
  17 C17            0.7721     4.2098    -6.4430 C.ar    
  18 C18            0.0973     4.7810    -5.3743 C.ar    
  19 C19            0.4222     4.4216    -4.0807 C.ar    
  20 C20            2.1027     2.9235    -4.9190 C.ar    
  21 C21            1.7778     3.2829    -6.2125 C.ar    
  22 C22            2.3014     5.8964     2.8466 C.ar    
  23 C23            0.9223     5.6830     0.8769 C.ar    
  24 C24           -0.0787     6.3914     1.5084 C.ar    
  25 C25            0.1032     6.8497     2.8012 C.ar    
  26 C26            1.2916     6.6045     3.4679 C.ar    
  27 Cl27           1.5128     7.1887     5.0876 Cl      
  28 O28            1.0192    -2.3773    -0.1752 O.3     
  29 C29           -0.2946    -2.9059     0.0158 C.3     
  30 O30            0.4523     4.5636    -7.7164 O.3     
  31 C31            1.1879     3.9357    -8.7684 C.3     
  32 C32           -0.9445    -3.1612    -1.3455 C.3     
  33 C33            0.6913     4.4557   -10.1189 C.3     
  34 C34           -0.2073    -4.2204     0.7939 C.3     
  35 H35           -0.7154     1.7816    -0.0426 H       
  36 H36           -0.9627    -0.6625    -0.0451 H       
  37 H37            3.2804    -1.0719    -0.2781 H       
  38 H38            0.8765     3.6459     0.6213 H       
  39 H39            4.3745     1.4453     0.7485 H       
  40 H40            4.5472     0.9010    -0.9338 H       
  41 H41            4.9049     3.4049    -0.5280 H       
  42 H42            3.7125     2.9902    -1.7880 H       
  43 H43           -0.0551     3.5244    -1.6375 H       
  44 H44            1.1430     4.8392    -1.5731 H       
  45 H45           -0.6858     5.5028    -5.5537 H       
  46 H46           -0.1038     4.8658    -3.2486 H       
  47 H47            2.8858     2.2017    -4.7396 H       
  48 H48            2.3033     2.8381    -7.0447 H       
  49 H49            3.2282     5.7055     3.3673 H       
  50 H50            0.7788     5.3267    -0.1325 H       
  51 H51           -1.0067     6.5892     0.9924 H       
  52 H52           -0.6835     7.4045     3.2908 H       
  53 H53           -0.8959    -2.1907     0.5771 H       
  54 H54            2.2477     4.1654    -8.6580 H       
  55 H55            1.0431     2.8565    -8.7191 H       
  56 H56           -1.9467    -3.5643    -1.1998 H       
  57 H57           -1.0067    -2.2247    -1.8998 H       
  58 H58           -0.3432    -3.8763    -1.9068 H       
  59 H59           -0.3684     4.2260   -10.2293 H       
  60 H60            0.8362     5.5349   -10.1682 H       
  61 H61            1.2524     3.9768   -10.9213 H       
  62 H62            0.2557    -4.0385     1.7637 H       
  63 H63           -1.2095    -4.6236     0.9396 H       
  64 H64            0.3940    -4.9355     0.2326 H       
@<TRIPOS>BOND
   1    1    2 ar
   2    1    6 ar
   3    1   35 1
   4    2    3 ar
   5    2   36 1
   6    3    4 ar
   7    3   28 1
   8    4    5 ar
   9    4   37 1
  10    5    6 ar
  11    5    8 1
  12    6    7 1
  13    7   10 1
  14    7   11 1
  15    7   38 1
  16    8    9 1
  17    8   39 1
  18    8   40 1
  19    9   10 1
  20    9   41 1
  21    9   42 1
  22   10   14 am
  23   11   12 1
  24   11   43 1
  25   11   44 1
  26   12   13 1
  27   13   20 ar
  28   13   19 ar
  29   14   15 2
  30   14   16 1
  31   16   23 ar
  32   16   22 ar
  33   17   18 ar
  34   17   21 ar
  35   17   30 1
  36   18   19 ar
  37   18   45 1
  38   19   46 1
  39   20   21 ar
  40   20   47 1
  41   21   48 1
  42   22   26 ar
  43   22   49 1
  44   23   24 ar
  45   23   50 1
  46   24   25 ar
  47   24   51 1
  48   25   26 ar
  49   25   52 1
  50   26   27 1
  51   28   29 1
  52   29   32 1
  53   29   34 1
  54   29   53 1
  55   30   31 1
  56   31   33 1
  57   31   54 1
  58   31   55 1
  59   32   56 1
  60   32   57 1
  61   32   58 1
  62   33   59 1
  63   33   60 1
  64   33   61 1
  65   34   62 1
  66   34   63 1
  67   34   64 1

#	End of record

