#	Name: ASD01813165
#	Creating user name:	WinNT
#	Creation time:	15. 06. 2019 19:29

#	Modifying user name:	WinNT
#	Modification time:	15. 06. 2019 19:29

#	Program:	/corina/corina34_cracker 3.40 0067  02.08.2006

@<TRIPOS>MOLECULE
ASD01813165
  52   55    0    0    0
SMALL
NO_CHARGES


@<TRIPOS>ATOM
   1 C1            -0.0889     1.4423    -0.0746 C.2     
   2 C2            -0.0645     0.0411    -0.0693 C.2     
   3 C3             1.1345    -0.6096    -0.0694 C.2     
   4 C4             2.3250     0.1363    -0.0748 C.2     
   5 N5             2.2717     1.5037    -0.0795 N.am    
   6 C6             1.0675     2.1431    -0.0797 C.2     
   7 C7             3.5585    -0.5301    -0.0748 C.2     
   8 C8             4.7208     0.1850    -0.0796 C.2     
   9 C9             4.6622     1.5910    -0.0849 C.2     
  10 C10            3.4065     2.2318    -0.0843 C.2     
  11 O11            3.3463     3.4498    -0.0893 O.2     
  12 C12            5.8950     2.3816    -0.0896 C.2     
  13 O13            5.8321     3.7291    -0.0947 O.3     
  14 O14            6.9757     1.8232    -0.0889 O.2     
  15 C15            3.6008    -2.0365    -0.0691 C.3     
  16 N16            3.7323    -2.5279    -1.4472 N.3     
  17 C17            4.0141    -3.9689    -1.4674 C.3     
  18 C18            4.2881    -4.4163    -2.9051 C.3     
  19 C19            3.0662    -4.1040    -3.7733 C.3     
  20 C20            2.7650    -2.6047    -3.6964 C.3     
  21 C21            2.5352    -2.2098    -2.2358 C.3     
  22 C22            3.3525    -4.4875    -5.2023 C.ar    
  23 C23            2.6316    -5.5021    -5.8033 C.ar    
  24 C24            2.8943    -5.8539    -7.1143 C.ar    
  25 C25            3.8775    -5.1908    -7.8240 C.ar    
  26 C26            4.5981    -4.1752    -7.2232 C.ar    
  27 C27            4.3325    -3.8206    -5.9140 C.ar    
  28 C28            1.5595    -6.2251    -5.0294 C.3     
  29 H29           -1.0344     1.9641    -0.0790 H       
  30 H30           -0.9878    -0.5192    -0.0649 H       
  31 H31            1.1683    -1.6891    -0.0651 H       
  32 H32            1.0369     3.2227    -0.0834 H       
  33 H33            5.6743    -0.3222    -0.0789 H       
  34 H34            6.6723     4.2078    -0.0976 H       
  35 H35            4.4538    -2.3737     0.5199 H       
  36 H36            2.6809    -2.4242     0.3687 H       
  37 H37            4.8876    -4.1769    -0.8496 H       
  38 H38            3.1545    -4.5126    -1.0755 H       
  39 H39            5.1561    -3.8831    -3.2929 H       
  40 H40            4.4818    -5.4889    -2.9217 H       
  41 H41            2.2070    -4.6673    -3.4092 H       
  42 H42            3.6090    -2.0430    -4.0967 H       
  43 H43            1.8706    -2.3828    -4.2785 H       
  44 H44            1.6825    -2.7617    -1.8403 H       
  45 H45            2.3346    -1.1401    -2.1761 H       
  46 H46            2.3314    -6.6472    -7.5836 H       
  47 H47            4.0832    -5.4661    -8.8479 H       
  48 H48            5.3666    -3.6573    -7.7777 H       
  49 H49            4.8953    -3.0273    -5.4446 H       
  50 H50            0.6295    -5.6589    -5.0812 H       
  51 H51            1.4065    -7.2152    -5.4589 H       
  52 H52            1.8671    -6.3242    -3.9884 H       
@<TRIPOS>BOND
   1    1    2 1
   2    1    6 2
   3    1   29 1
   4    2    3 2
   5    2   30 1
   6    3    4 1
   7    3   31 1
   8    4    5 1
   9    4    7 2
  10    5    6 1
  11    5   10 am
  12    6   32 1
  13    7    8 1
  14    7   15 1
  15    8    9 2
  16    8   33 1
  17    9   10 1
  18    9   12 1
  19   10   11 2
  20   12   13 1
  21   12   14 2
  22   13   34 1
  23   15   16 1
  24   15   35 1
  25   15   36 1
  26   16   17 1
  27   16   21 1
  28   17   18 1
  29   17   37 1
  30   17   38 1
  31   18   19 1
  32   18   39 1
  33   18   40 1
  34   19   20 1
  35   19   22 1
  36   19   41 1
  37   20   21 1
  38   20   42 1
  39   20   43 1
  40   21   44 1
  41   21   45 1
  42   22   23 ar
  43   22   27 ar
  44   23   24 ar
  45   23   28 1
  46   24   25 ar
  47   24   46 1
  48   25   26 ar
  49   25   47 1
  50   26   27 ar
  51   26   48 1
  52   27   49 1
  53   28   50 1
  54   28   51 1
  55   28   52 1

#	End of record

