#	Name: ASD01820069
#	Creating user name:	WinNT
#	Creation time:	15. 06. 2019 19:36

#	Modifying user name:	WinNT
#	Modification time:	15. 06. 2019 19:36

#	Program:	/corina/corina34_cracker 3.40 0067  02.08.2006

@<TRIPOS>MOLECULE
ASD01820069
  77   82    0    0    0
SMALL
NO_CHARGES


@<TRIPOS>ATOM
   1 C1            -0.0167     1.3781     0.0096 C.ar    
   2 C2             0.0021    -0.0041     0.0020 C.ar    
   3 C3             1.2063    -0.6904    -0.0131 C.ar    
   4 C4             2.3989     0.0151    -0.0207 C.ar    
   5 C5             2.3798     1.4244    -0.0130 C.ar    
   6 C6             1.1684     2.0970     0.0022 C.ar    
   7 C7             3.8259    -0.3700    -0.0364 C.2     
   8 N8             4.5720     0.7494    -0.0375 N.am    
   9 C9             3.7959     1.8481    -0.0242 C.2     
  10 O10            4.1923     2.9960    -0.0224 O.2     
  11 O11            4.2533    -1.5068    -0.0462 O.2     
  12 C12            8.0623     0.8051    -1.5141 C.3     
  13 N13            8.5370     0.8195    -2.9000 N.ar    
  14 C14            8.7294     1.9775    -3.5008 C.ar    
  15 C15            9.1761     2.0302    -4.8076 C.ar    
  16 C16            9.4222     0.8462    -5.4858 C.ar    
  17 C17            9.2088    -0.3517    -4.8211 C.ar    
  18 C18            8.7657    -0.3259    -3.5122 C.ar    
  19 C19            9.9095     0.8610    -6.9118 C.3     
  20 C20           11.4393     0.8824    -6.9277 C.3     
  21 C21           11.9341     0.8973    -8.3754 C.3     
  22 C22           13.4409     0.9184    -8.3911 C.ar    
  23 C23           14.1671    -0.2626    -8.4051 C.ar    
  24 C24           15.5478    -0.2041    -8.4192 C.ar    
  25 N25           16.1737     0.9566    -8.4190 N.ar    
  26 C26           15.5157     2.0993    -8.4055 C.ar    
  27 C27           14.1339     2.1193    -8.3976 C.ar    
  28 C28           17.6385     0.9771    -8.4337 C.3     
  29 N29           20.1379     1.0284   -11.2827 N.am    
  30 C30           20.3689     2.1450   -11.9964 C.2     
  31 C31           20.8408     1.7549   -13.3418 C.ar    
  32 C32           20.8639     0.3457   -13.3487 C.ar    
  33 C33           20.4052    -0.0730   -12.0074 C.2     
  34 C34           21.2230     2.4560   -14.4742 C.ar    
  35 C35           21.6256     1.7654   -15.6067 C.ar    
  36 C36           21.6478     0.3833   -15.6137 C.ar    
  37 C37           21.2693    -0.3312   -14.4878 C.ar    
  38 O38           20.2898    -1.2194   -11.6235 O.2     
  39 O39           20.2150     3.2832   -11.6016 O.2     
  40 C40            6.5325     0.7843    -1.4992 C.3     
  41 C41           18.1338     0.9924    -9.8813 C.3     
  42 C42            6.0368     0.7693    -0.0518 C.3     
  43 C43           19.6636     1.0137    -9.8967 C.3     
  44 H44           -0.9613     1.9015     0.0169 H       
  45 H45           -0.9280    -0.5530     0.0083 H       
  46 H46            1.2149    -1.7703    -0.0187 H       
  47 H47            1.1477     3.1767     0.0078 H       
  48 H48            8.4427    -0.0827    -1.0089 H       
  49 H49            8.4186     1.6971    -0.9988 H       
  50 H50            8.5354     2.8952    -2.9656 H       
  51 H51            9.3311     2.9817    -5.2945 H       
  52 H52            9.3898    -1.2930    -5.3186 H       
  53 H53            8.5975    -1.2546    -2.9873 H       
  54 H54            9.5533    -0.0312    -7.4268 H       
  55 H55            9.5285     1.7486    -7.4168 H       
  56 H56           11.7956     1.7745    -6.4127 H       
  57 H57           11.8204    -0.0052    -6.4227 H       
  58 H58           11.5778     0.0052    -8.8904 H       
  59 H59           11.5530     1.7849    -8.8805 H       
  60 H60           13.6602    -1.2163    -8.4047 H       
  61 H61           16.1208    -1.1195    -8.4302 H       
  62 H62           16.0630     3.0304    -8.4054 H       
  63 H63           13.6006     3.0584    -8.3869 H       
  64 H64           17.9946     1.8691    -7.9184 H       
  65 H65           18.0194     0.0894    -7.9288 H       
  66 H66           21.2070     3.5359   -14.4747 H       
  67 H67           21.9237     2.3110   -16.4898 H       
  68 H68           21.9628    -0.1434   -16.5023 H       
  69 H69           21.2888    -1.4110   -14.4989 H       
  70 H70            6.1521     1.6721    -2.0043 H       
  71 H71            6.1762    -0.1077    -2.0145 H       
  72 H72           17.7777     0.1003   -10.3966 H       
  73 H73           17.7530     1.8801   -10.3863 H       
  74 H74            6.3931     1.6613     0.4635 H       
  75 H75            6.4172    -0.1185     0.4534 H       
  76 H76           20.0445     0.1260    -9.3917 H       
  77 H77           20.0197     1.9058    -9.3813 H       
@<TRIPOS>BOND
   1    1    2 ar
   2    1    6 ar
   3    1   44 1
   4    2    3 ar
   5    2   45 1
   6    3    4 ar
   7    3   46 1
   8    4    5 ar
   9    4    7 1
  10    5    6 ar
  11    5    9 1
  12    6   47 1
  13    7    8 am
  14    7   11 2
  15    8    9 am
  16    8   42 1
  17    9   10 2
  18   12   13 1
  19   12   40 1
  20   12   48 1
  21   12   49 1
  22   13   14 ar
  23   13   18 ar
  24   14   15 ar
  25   14   50 1
  26   15   16 ar
  27   15   51 1
  28   16   17 ar
  29   16   19 1
  30   17   18 ar
  31   17   52 1
  32   18   53 1
  33   19   20 1
  34   19   54 1
  35   19   55 1
  36   20   21 1
  37   20   56 1
  38   20   57 1
  39   21   22 1
  40   21   58 1
  41   21   59 1
  42   22   23 ar
  43   22   27 ar
  44   23   24 ar
  45   23   60 1
  46   24   25 ar
  47   24   61 1
  48   25   26 ar
  49   25   28 1
  50   26   27 ar
  51   26   62 1
  52   27   63 1
  53   28   41 1
  54   28   64 1
  55   28   65 1
  56   29   30 am
  57   29   33 am
  58   29   43 1
  59   30   31 1
  60   30   39 2
  61   31   32 ar
  62   31   34 ar
  63   32   33 1
  64   32   37 ar
  65   33   38 2
  66   34   35 ar
  67   34   66 1
  68   35   36 ar
  69   35   67 1
  70   36   37 ar
  71   36   68 1
  72   37   69 1
  73   40   42 1
  74   40   70 1
  75   40   71 1
  76   41   43 1
  77   41   72 1
  78   41   73 1
  79   42   74 1
  80   42   75 1
  81   43   76 1
  82   43   77 1

#	End of record

