#	Name: ASD00842320
#	Creating user name:	WinNT
#	Creation time:	15. 06. 2019 18:44

#	Modifying user name:	WinNT
#	Modification time:	15. 06. 2019 18:44

#	Program:	/corina/corina34_cracker 3.40 0067  02.08.2006

@<TRIPOS>MOLECULE
ASD00842320
  93   98    0    0    0
SMALL
NO_CHARGES


@<TRIPOS>ATOM
   1 F1             6.0126    -1.7076    -2.1531 F       
   2 C2             0.8899     1.5141    -0.6902 C.ar    
   3 C3             1.2216     0.1751    -0.8361 C.ar    
   4 C4             1.2011    -0.6664     0.2670 C.ar    
   5 C5             0.8508    -0.1691     1.5071 C.ar    
   6 C6             0.5201     1.1660     1.6497 C.ar    
   7 C7             0.5401     2.0066     0.5524 C.ar    
   8 C8             1.5604    -2.1217     0.1120 C.3     
   9 C9             1.3439    -2.8629     1.4141 C.2     
  10 C10            0.7387    -2.7587    -1.0104 C.3     
  11 C11           -0.7280    -2.5272    -0.7527 C.2     
  12 N12           -1.6497    -3.0617    -1.5780 N.am    
  13 O13           -1.0788    -1.8599     0.1973 O.2     
  14 C14           -3.0756    -2.7492    -1.4104 C.3     
  15 C15           -3.8590    -4.0615    -1.3056 C.3     
  16 C16           -3.5460    -4.9363    -2.5216 C.3     
  17 C17           -2.0517    -5.2663    -2.5438 C.3     
  18 C18           -1.2473    -3.9632    -2.6661 C.3     
  19 C19           -4.3532    -6.2334    -2.4378 C.3     
  20 C20           -5.8486    -5.9050    -2.4173 C.3     
  21 C21           -6.6517    -7.2075    -2.3948 C.3     
  22 N22           -6.3240    -8.0066    -3.5825 N.3     
  23 C23           -4.9024    -8.3741    -3.5995 C.3     
  24 C24           -4.0471    -7.1064    -3.6579 C.3     
  25 H25           -6.9100    -8.8259    -3.6400 H       
  26 O26            0.2912    -2.9932     2.0023 O.2     
  27 N27            2.5368    -3.3497     1.7955 N.am    
  28 C28            3.0396    -2.2761    -0.1577 C.ar    
  29 C29            3.5530    -3.0232     0.8951 C.ar    
  30 C30            3.8559    -1.8357    -1.1753 C.ar    
  31 C31            5.2081    -2.1373    -1.1564 C.ar    
  32 C32            5.7325    -2.8824    -0.1110 C.ar    
  33 C33            4.9130    -3.3241     0.9099 C.ar    
  34 F34            7.0507    -3.1776    -0.0907 F       
  35 C35            2.5458    -5.9300     2.7528 C.ar    
  36 C36            1.2991    -6.3802     2.3428 C.ar    
  37 C37            3.6097    -6.8091     2.8250 C.ar    
  38 C38            3.4351    -8.1377     2.4888 C.ar    
  39 C39            2.1899    -8.5928     2.0781 C.ar    
  40 C40            1.1211    -7.7132     2.0053 C.ar    
  41 O41            2.0186    -9.8999     1.7480 O.3     
  42 O42            0.2531    -5.5154     2.2724 O.3     
  43 C43            3.1634   -10.7494     1.8469 C.3     
  44 C44           -1.0012    -6.0480     1.8423 C.3     
  45 C45           -2.0497    -4.9339     1.8262 C.3     
  46 S46            2.7745    -4.2347     3.1749 S.o2    
  47 O47            4.1464    -4.0873     3.5147 O.2     
  48 O48            1.7143    -3.8944     4.0577 O.2     
  49 O49            1.5655    -0.3118    -2.0573 O.3     
  50 C50            1.9801    -0.1047    -4.4292 C.3     
  51 C51            1.4564     0.5825    -3.1665 C.3     
  52 H52            0.9094     2.1721    -1.5465 H       
  53 H53            0.8347    -0.8237     2.3659 H       
  54 H54            0.2457     1.5527     2.6201 H       
  55 H55            0.2815     3.0489     0.6664 H       
  56 H56            1.0155    -2.3086    -1.9638 H       
  57 H57            0.9372    -3.8299    -1.0431 H       
  58 H58           -3.2172    -2.1654    -0.5009 H       
  59 H59           -3.4286    -2.1806    -2.2708 H       
  60 H60           -3.5691    -4.5865    -0.3954 H       
  61 H61           -4.9271    -3.8462    -1.2775 H       
  62 H62           -3.8132    -4.4008    -3.4327 H       
  63 H63           -1.7789    -5.7800    -1.6219 H       
  64 H64           -1.8336    -5.9086    -3.3970 H       
  65 H65           -1.4524    -3.4963    -3.6295 H       
  66 H66           -0.1827    -4.1819    -2.5830 H       
  67 H67           -4.0857    -6.7707    -1.5279 H       
  68 H68           -6.0804    -5.3192    -1.5277 H       
  69 H69           -6.1078    -5.3329    -3.3081 H       
  70 H70           -6.4022    -7.7726    -1.4968 H       
  71 H71           -7.7171    -6.9773    -2.3946 H       
  72 H72           -4.6611    -8.9337    -2.6958 H       
  73 H73           -4.6973    -8.9912    -4.4743 H       
  74 H74           -4.2779    -6.5532    -4.5683 H       
  75 H75           -2.9917    -7.3790    -3.6548 H       
  76 H76            3.4426    -1.2560    -1.9874 H       
  77 H77            5.3278    -3.9036     1.7213 H       
  78 H78            4.5794    -6.4568     3.1444 H       
  79 H79            4.2682    -8.8226     2.5454 H       
  80 H80            0.1513    -8.0656     1.6863 H       
  81 H81            2.8896   -11.7635     1.5556 H       
  82 H82            3.9476   -10.3807     1.1857 H       
  83 H83            3.5262   -10.7521     2.8747 H       
  84 H84           -0.8955    -6.4620     0.8396 H       
  85 H85           -1.3167    -6.8339     2.5285 H       
  86 H86           -3.0065    -5.3401     1.4981 H       
  87 H87           -2.1554    -4.5199     2.8290 H       
  88 H88           -1.7343    -4.1479     1.1400 H       
  89 H89            2.9965    -0.4582    -4.2555 H       
  90 H90            1.3383    -0.9507    -4.6752 H       
  91 H91            1.9787     0.6051    -5.2564 H       
  92 H92            0.4116     0.8581    -3.3096 H       
  93 H93            2.0449     1.4787    -2.9700 H       
@<TRIPOS>BOND
   1    1   31 1
   2    2    3 ar
   3    2    7 ar
   4    2   52 1
   5    3    4 ar
   6    3   49 1
   7    4    5 ar
   8    4    8 1
   9    5    6 ar
  10    5   53 1
  11    6    7 ar
  12    6   54 1
  13    7   55 1
  14    8    9 1
  15    8   10 1
  16    8   28 1
  17    9   26 2
  18    9   27 am
  19   10   11 1
  20   10   56 1
  21   10   57 1
  22   11   12 am
  23   11   13 2
  24   12   14 1
  25   12   18 1
  26   14   15 1
  27   14   58 1
  28   14   59 1
  29   15   16 1
  30   15   60 1
  31   15   61 1
  32   16   17 1
  33   16   19 1
  34   16   62 1
  35   17   18 1
  36   17   63 1
  37   17   64 1
  38   18   65 1
  39   18   66 1
  40   19   20 1
  41   19   24 1
  42   19   67 1
  43   20   21 1
  44   20   68 1
  45   20   69 1
  46   21   22 1
  47   21   70 1
  48   21   71 1
  49   22   23 1
  50   22   25 1
  51   23   24 1
  52   23   72 1
  53   23   73 1
  54   24   74 1
  55   24   75 1
  56   27   46 am
  57   27   29 1
  58   28   29 ar
  59   28   30 ar
  60   29   33 ar
  61   30   31 ar
  62   30   76 1
  63   31   32 ar
  64   32   33 ar
  65   32   34 1
  66   33   77 1
  67   35   36 ar
  68   35   37 ar
  69   35   46 1
  70   36   42 1
  71   36   40 ar
  72   37   38 ar
  73   37   78 1
  74   38   39 ar
  75   38   79 1
  76   39   40 ar
  77   39   41 1
  78   40   80 1
  79   41   43 1
  80   42   44 1
  81   43   81 1
  82   43   82 1
  83   43   83 1
  84   44   45 1
  85   44   84 1
  86   44   85 1
  87   45   86 1
  88   45   87 1
  89   45   88 1
  90   46   47 2
  91   46   48 2
  92   49   51 1
  93   50   51 1
  94   50   89 1
  95   50   90 1
  96   50   91 1
  97   51   92 1
  98   51   93 1

#	End of record

