#	Name: ASD07730001
#	Creating user name:	WinNT
#	Creation time:	15. 06. 2019 21:11

#	Modifying user name:	WinNT
#	Modification time:	15. 06. 2019 21:11

#	Program:	/corina/corina34_cracker 3.40 0067  02.08.2006

@<TRIPOS>MOLECULE
ASD07730001
  42   44    0    0    0
SMALL
NO_CHARGES


@<TRIPOS>ATOM
   1 C1            -0.0437     1.4058     0.0596 C.3     
   2 C2             0.9854     0.0995     2.1902 C.ar    
   3 C3             0.4538    -0.6436     1.1556 C.ar    
   4 C4             0.4601    -2.0438     1.2348 C.ar    
   5 C5            -0.0047    -3.1120     0.3499 C.2     
   6 C6            -0.9999    -4.0211    -1.6108 C.2     
   7 C7            -1.9111    -4.9783    -3.5915 C.ar    
   8 C8            -2.1266    -6.2081    -2.9882 C.ar    
   9 C9            -2.4471    -7.3095    -3.7599 C.ar    
  10 C10            1.5242    -0.5310     3.3041 C.ar    
  11 C11            1.5379    -1.9038     3.3967 C.ar    
  12 C12            1.0072    -2.6768     2.3656 C.ar    
  13 C13           -2.0184    -4.8570    -4.9754 C.ar    
  14 C14           -2.3399    -5.9652    -5.7414 C.ar    
  15 C15           -2.5530    -7.1886    -5.1328 C.ar    
  16 C16            1.3148    -5.0685     3.0987 C.3     
  17 C17           -1.9357    -3.6038    -6.9949 C.3     
  18 N18           -0.6193    -2.9437    -0.8961 N.am    
  19 N19           -1.5917    -3.8590    -2.8108 N.am    
  20 N20            0.8765    -4.0267     2.1666 N.pl3   
  21 N21            0.2580    -4.2516     0.9326 N.2     
  22 O22           -0.0725    -0.0229     0.0683 O.3     
  23 O23           -0.8094    -5.1394    -1.1729 O.2     
  24 O24           -1.8086    -3.6534    -5.5724 O.3     
  25 H25            0.9891     1.7487     0.1213 H       
  26 H26           -0.4939     1.7727    -0.8628 H       
  27 H27           -0.6044     1.7857     0.9136 H       
  28 H28            0.9865     1.1779     2.1311 H       
  29 H29           -2.0438    -6.3056    -1.9158 H       
  30 H30           -2.6148    -8.2668    -3.2889 H       
  31 H31            1.9369     0.0625     4.1064 H       
  32 H32            1.9598    -2.3821     4.2683 H       
  33 H33           -2.4238    -5.8740    -6.8143 H       
  34 H34           -2.8029    -8.0518    -5.7318 H       
  35 H35            0.5032    -5.3051     3.7868 H       
  36 H36            1.5902    -5.9631     2.5403 H       
  37 H37            2.1769    -4.7123     3.6625 H       
  38 H38           -1.2154    -4.2851    -7.4479 H       
  39 H39           -2.9451    -3.9002    -7.2800 H       
  40 H40           -1.7434    -2.5885    -7.3417 H       
  41 H41           -0.7712    -2.0516    -1.2454 H       
  42 H42           -1.7965    -2.9677    -3.1341 H       
@<TRIPOS>BOND
   1    1   22 1
   2    1   25 1
   3    1   26 1
   4    1   27 1
   5    2    3 ar
   6    2   10 ar
   7    2   28 1
   8    3    4 ar
   9    3   22 1
  10    4    5 1
  11    4   12 ar
  12    5   18 1
  13    5   21 2
  14    6   18 am
  15    6   19 am
  16    6   23 2
  17    7    8 ar
  18    7   13 ar
  19    7   19 1
  20    8    9 ar
  21    8   29 1
  22    9   15 ar
  23    9   30 1
  24   10   11 ar
  25   10   31 1
  26   11   12 ar
  27   11   32 1
  28   12   20 1
  29   13   14 ar
  30   13   24 1
  31   14   15 ar
  32   14   33 1
  33   15   34 1
  34   16   20 1
  35   16   35 1
  36   16   36 1
  37   16   37 1
  38   17   24 1
  39   17   38 1
  40   17   39 1
  41   17   40 1
  42   18   41 1
  43   19   42 1
  44   20   21 1

#	End of record

