#	Name: ASD02038408
#	Creating user name:	WinNT
#	Creation time:	15. 06. 2019 20:16

#	Modifying user name:	WinNT
#	Modification time:	15. 06. 2019 20:16

#	Program:	/corina/corina34_cracker 3.40 0067  02.08.2006

@<TRIPOS>MOLECULE
ASD02038408
  39   40    0    0    0
SMALL
NO_CHARGES


@<TRIPOS>ATOM
   1 N1            -0.0162     1.3436     0.0094 N.am    
   2 C2             0.0021    -0.0041     0.0020 C.2     
   3 C3            -1.2926    -0.7753     0.0102 C.3     
   4 O4            -1.0125    -2.1765     0.0000 O.3     
   5 C5            -2.0795    -3.0194     0.0057 C.ar    
   6 C6            -1.8790    -4.3916    -0.0036 C.ar    
   7 C7            -2.9645    -5.2487     0.0022 C.ar    
   8 C8            -4.2544    -4.7342     0.0173 C.ar    
   9 C9            -4.4530    -3.3622     0.0265 C.ar    
  10 C10           -3.3681    -2.5066     0.0265 C.ar    
  11 C11            0.9425     3.5935     0.0124 C.3     
  12 C12            1.2424     2.0932     0.0014 C.3     
  13 O13            1.0605    -0.5961    -0.0113 O.2     
  14 O14           -5.3228    -5.5763     0.0225 O.3     
  15 N15            2.2011     4.3432     0.0044 N.pl3   
  16 C16            2.1821     5.7412     0.0121 C.ar    
  17 C17            3.3746     6.4526     0.0045 C.ar    
  18 C18            0.9706     6.4200     0.0215 C.ar    
  19 C19            2.1475     8.5103     0.0263 C.ar    
  20 C20            3.3548     7.8342     0.0116 C.ar    
  21 C21            0.9545     7.8027     0.0286 C.ar    
  22 F22           -0.2233     8.4645     0.0373 F       
  23 F23            2.1308     9.8612     0.0337 F       
  24 F24           -2.7702    -6.5856    -0.0073 F       
  25 H25           -0.8627     1.8171     0.0160 H       
  26 H26           -1.8592    -0.5245     0.9070 H       
  27 H27           -1.8762    -0.5150    -0.8728 H       
  28 H28           -0.8756    -4.7909    -0.0157 H       
  29 H29           -5.4561    -2.9620     0.0379 H       
  30 H30           -3.5236    -1.4379     0.0337 H       
  31 H31            0.3589     3.8538    -0.8707 H       
  32 H32            0.3759     3.8443     0.9091 H       
  33 H33            1.8260     1.8329     0.8845 H       
  34 H34            1.8090     1.8425    -0.8954 H       
  35 H35           -5.6234    -5.8248     0.9073 H       
  36 H36            3.0476     3.8697    -0.0063 H       
  37 H37            4.3175     5.9261    -0.0066 H       
  38 H38            0.0419     5.8686     0.0229 H       
  39 H39            4.2826     8.3870     0.0098 H       
@<TRIPOS>BOND
   1    1    2 am
   2    1   12 1
   3    1   25 1
   4    2   13 2
   5    2    3 1
   6    3    4 1
   7    3   26 1
   8    3   27 1
   9    4    5 1
  10    5    6 ar
  11    5   10 ar
  12    6    7 ar
  13    6   28 1
  14    7    8 ar
  15    7   24 1
  16    8    9 ar
  17    8   14 1
  18    9   10 ar
  19    9   29 1
  20   10   30 1
  21   11   12 1
  22   11   15 1
  23   11   31 1
  24   11   32 1
  25   12   33 1
  26   12   34 1
  27   14   35 1
  28   15   16 1
  29   15   36 1
  30   16   17 ar
  31   16   18 ar
  32   17   20 ar
  33   17   37 1
  34   18   21 ar
  35   18   38 1
  36   19   20 ar
  37   19   23 1
  38   19   21 ar
  39   20   39 1
  40   21   22 1

#	End of record

