#	Name: ASD01680095
#	Creating user name:	WinNT
#	Creation time:	15. 06. 2019 19:22

#	Modifying user name:	WinNT
#	Modification time:	15. 06. 2019 19:22

#	Program:	/corina/corina34_cracker 3.40 0067  02.08.2006

@<TRIPOS>MOLECULE
ASD01680095
  95   97    0    0    0
SMALL
NO_CHARGES


@<TRIPOS>ATOM
   1 C1             0.9037    -1.0276     2.0882 C.2     
   2 C2             0.6344    -2.4209     1.5812 C.3     
   3 C3             0.1704    -2.3529     0.1249 C.3     
   4 O4             2.0072    -0.7301     2.4803 O.2     
   5 O5            -0.0809    -0.1153     2.0991 O.3     
   6 N6             1.8612    -3.2171     1.6662 N.am    
   7 S7             2.1356    -4.1769     2.9875 S.o2    
   8 O8             3.3734    -4.8351     2.7552 O.2     
   9 O9             1.8876    -3.3682     4.1293 O.2     
  10 C10            0.8977    -5.4308     2.9874 C.ar    
  11 C11           -0.2230    -5.2956     3.7853 C.ar    
  12 C12           -1.1942    -6.2794     3.7853 C.ar    
  13 C13           -1.0448    -7.3980     2.9871 C.ar    
  14 C14            0.0755    -7.5328     2.1885 C.ar    
  15 C15            1.0445    -6.5470     2.1853 C.ar    
  16 C16            2.2634    -6.6914     1.3109 C.3     
  17 C17           -2.1031    -8.4709     2.9878 C.3     
  18 C18           -0.3859    -4.0761     4.6554 C.3     
  19 N19            0.0233    -3.7109    -0.4047 N.am    
  20 C20           -0.3784    -3.8980    -1.6775 C.2     
  21 O21           -0.6182    -2.9421    -2.3845 O.2     
  22 C22           -0.5298    -5.2949    -2.2223 C.3     
  23 O23           -0.9632    -5.2314    -3.5825 O.3     
  24 N24           -3.3562    -6.3196    -5.0847 N.am    
  25 C25           -2.5944    -7.0114    -4.0290 C.3     
  26 C26           -1.1385    -6.5095    -4.1970 C.3     
  27 C27           -1.0211    -6.4053    -5.7406 C.3     
  28 C28           -2.4315    -5.9438    -6.1641 C.3     
  29 C29           -4.6818    -6.0769    -5.0660 C.2     
  30 C30           -5.4949    -6.4278    -3.8467 C.3     
  31 C31           -6.9590    -6.0528    -4.0848 C.3     
  32 C32           -7.8049    -6.5216    -2.8992 C.3     
  33 C33           -9.2542    -6.7130    -3.3508 C.3     
  34 C34           -9.3247    -7.8526    -4.3693 C.3     
  35 O35           -5.2203    -5.5762    -6.0305 O.2     
  36 C36          -10.1244    -7.0565    -2.1401 C.3     
  37 C37           -9.7626    -5.4215    -3.9945 C.3     
  38 C38           -7.0797    -4.5343    -4.2286 C.3     
  39 C39           -2.8384    -6.6406    -7.4640 C.3     
  40 N40           -1.9766    -6.1801    -8.5555 N.pl3   
  41 C41           -2.2197    -6.6008    -9.8578 C.ar    
  42 C42           -3.2833    -7.4594   -10.1179 C.ar    
  43 C43           -3.5137    -7.8701   -11.4182 C.ar    
  44 C44           -2.6696    -7.4067   -12.4190 C.ar    
  45 C45           -1.6334    -6.5565   -12.0897 C.ar    
  46 N46           -1.4404    -6.1767   -10.8406 N.ar    
  47 H47           -0.1426    -2.8848     2.1889 H       
  48 H48           -0.7883    -1.8368     0.0727 H       
  49 H49            0.9078    -1.8102    -0.4665 H       
  50 H50            0.1398     0.7648     2.4334 H       
  51 H51            2.5128    -3.1821     0.9484 H       
  52 H52           -2.0695    -6.1741     4.4091 H       
  53 H53            0.1923    -8.4069     1.5652 H       
  54 H54            3.0814    -7.1136     1.8946 H       
  55 H55            2.0346    -7.3525     0.4750 H       
  56 H56            2.5558    -5.7127     0.9306 H       
  57 H57           -2.8465    -8.2485     2.2223 H       
  58 H58           -1.6422    -9.4360     2.7771 H       
  59 H59           -2.5860    -8.5043     3.9644 H       
  60 H60           -0.6283    -3.2150     4.0326 H       
  61 H61           -1.1906    -4.2450     5.3709 H       
  62 H62            0.5436    -3.8860     5.1922 H       
  63 H63            0.2150    -4.4754     0.1607 H       
  64 H64            0.4289    -5.8110    -2.1702 H       
  65 H65           -1.2672    -5.8376    -1.6310 H       
  66 H66           -2.9778    -6.7407    -3.0452 H       
  67 H67           -2.6424    -8.0909    -4.1720 H       
  68 H68           -0.4274    -7.2331    -3.7984 H       
  69 H69           -0.2724    -5.6645    -6.0213 H       
  70 H70           -0.7862    -7.3766    -6.1759 H       
  71 H71           -2.4420    -4.8626    -6.3017 H       
  72 H72           -5.4205    -7.4984    -3.6560 H       
  73 H73           -5.1145    -5.8781    -2.9857 H       
  74 H74           -7.3135    -6.5334    -4.9967 H       
  75 H75           -7.4131    -7.4673    -2.5248 H       
  76 H76           -7.7669    -5.7735    -2.1074 H       
  77 H77           -8.9625    -8.7727    -3.9107 H       
  78 H78          -10.3572    -7.9890    -4.6910 H       
  79 H79           -8.7047    -7.6079    -5.2318 H       
  80 H80          -10.0742    -6.2446    -1.4145 H       
  81 H81          -11.1569    -7.1929    -2.4618 H       
  82 H82           -9.7622    -7.9766    -1.6816 H       
  83 H83           -9.2564    -5.2667    -4.9473 H       
  84 H84          -10.8370    -5.4976    -4.1619 H       
  85 H85           -9.5567    -4.5802    -3.3327 H       
  86 H86           -6.7003    -4.0528    -3.3273 H       
  87 H87           -6.4985    -4.2036    -5.0894 H       
  88 H88           -8.1261    -4.2649    -4.3715 H       
  89 H89           -2.7316    -7.7191    -7.3470 H       
  90 H90           -3.8765    -6.4013    -7.6950 H       
  91 H91           -1.2363    -5.5816    -8.3694 H       
  92 H92           -3.9200    -7.8008    -9.3151 H       
  93 H93           -4.3314    -8.5364   -11.6501 H       
  94 H94           -2.8222    -7.7088   -13.4446 H       
  95 H95           -0.9747    -6.1938   -12.8649 H       
@<TRIPOS>BOND
   1    1    2 1
   2    1    4 2
   3    1    5 1
   4    2    3 1
   5    2    6 1
   6    2   47 1
   7    3   19 1
   8    3   48 1
   9    3   49 1
  10    5   50 1
  11    6    7 am
  12    6   51 1
  13    7    8 2
  14    7    9 2
  15    7   10 1
  16   10   11 ar
  17   10   15 ar
  18   11   12 ar
  19   11   18 1
  20   12   13 ar
  21   12   52 1
  22   13   14 ar
  23   13   17 1
  24   14   15 ar
  25   14   53 1
  26   15   16 1
  27   16   54 1
  28   16   55 1
  29   16   56 1
  30   17   57 1
  31   17   58 1
  32   17   59 1
  33   18   60 1
  34   18   61 1
  35   18   62 1
  36   19   20 am
  37   19   63 1
  38   20   21 2
  39   20   22 1
  40   22   23 1
  41   22   64 1
  42   22   65 1
  43   23   26 1
  44   24   25 1
  45   24   28 1
  46   24   29 am
  47   25   26 1
  48   25   66 1
  49   25   67 1
  50   26   27 1
  51   26   68 1
  52   27   28 1
  53   27   69 1
  54   27   70 1
  55   28   39 1
  56   28   71 1
  57   29   30 1
  58   29   35 2
  59   30   31 1
  60   30   72 1
  61   30   73 1
  62   31   32 1
  63   31   38 1
  64   31   74 1
  65   32   33 1
  66   32   75 1
  67   32   76 1
  68   33   34 1
  69   33   36 1
  70   33   37 1
  71   34   77 1
  72   34   78 1
  73   34   79 1
  74   36   80 1
  75   36   81 1
  76   36   82 1
  77   37   83 1
  78   37   84 1
  79   37   85 1
  80   38   86 1
  81   38   87 1
  82   38   88 1
  83   39   40 1
  84   39   89 1
  85   39   90 1
  86   40   41 1
  87   40   91 1
  88   41   42 ar
  89   41   46 ar
  90   42   43 ar
  91   42   92 1
  92   43   44 ar
  93   43   93 1
  94   44   45 ar
  95   44   94 1
  96   45   46 ar
  97   45   95 1

#	End of record

