#	Name: ASD05723003
#	Creating user name:	WinNT
#	Creation time:	15. 06. 2019 21:02

#	Modifying user name:	WinNT
#	Modification time:	15. 06. 2019 21:02

#	Program:	/corina/corina34_cracker 3.40 0067  02.08.2006

@<TRIPOS>MOLECULE
ASD05723003
 151  154    0    0    0
SMALL
NO_CHARGES


@<TRIPOS>ATOM
   1 C1            -0.7705     2.4226    -0.3111 C.3     
   2 C2            -0.6129     0.9209    -0.0748 C.3     
   3 C3             0.0141     0.6990     1.3043 C.3     
   4 C4             0.3060    -0.7879     1.5081 C.3     
   5 C5             1.1979    -1.2950     0.3707 C.3     
   6 C6             1.4472    -2.7903     0.5362 C.3     
   7 C7             2.5605    -3.0767     1.5407 C.3     
   8 C8             3.5418    -4.0434     0.9199 C.2     
   9 C9             4.7557    -3.6371     0.5583 C.2     
  10 C10            5.7134    -4.5370    -0.0853 C.2     
  11 C11            6.9509    -4.0871    -0.3916 C.2     
  12 C12            7.8784    -4.9368    -1.1504 C.2     
  13 C13            9.0688    -4.4414    -1.4727 C.2     
  14 C14           10.0944    -5.1522    -2.2987 C.3     
  15 C15           10.5710    -4.2645    -3.4532 C.3     
  16 C16            9.4346    -3.8484    -4.3777 C.3     
  17 C17            9.9753    -3.4478    -5.7317 C.2     
  18 O18           11.1328    -3.6475    -6.0052 O.2     
  19 C19            9.0567    -2.8102    -6.7406 C.3     
  20 C20            9.8600    -2.1966    -7.8875 C.3     
  21 C21            8.9120    -1.5554    -8.8792 C.2     
  22 C22            7.7679    -1.0875    -8.4644 C.2     
  23 C23            6.7674    -0.4133    -9.3646 C.3     
  24 C24            5.8641     0.4479    -8.5126 C.2     
  25 O25            6.3702     1.2913    -7.8088 O.2     
  26 C26            4.3724     0.2707    -8.5238 C.3     
  27 C27            3.7184     1.3225    -7.6162 C.3     
  28 O28            2.3642     0.8999    -7.3171 O.3     
  29 C29            1.7247     1.4423    -6.2707 C.2     
  30 O30            2.3043     2.1117    -5.4538 O.2     
  31 C31            0.2345     1.2182    -6.1622 C.3     
  32 C32           -0.4737     2.2469    -7.0518 C.3     
  33 C33           -1.9848     2.1056    -6.9688 C.3     
  34 C34           -2.4744     1.8781    -5.5465 C.3     
  35 C35           -1.3900     2.2437    -4.5279 C.3     
  36 N36           -0.2367     1.3473    -4.7824 N.am    
  37 C37            0.3360     0.7035    -3.7572 C.2     
  38 O38            1.4633     0.2547    -3.8759 O.2     
  39 C39           -0.3990     0.4669    -2.4906 C.2     
  40 O40           -1.6010     0.3914    -2.5128 O.2     
  41 C41            0.2856     0.3232    -1.1603 C.3     
  42 O42            0.5305    -1.0536    -0.8790 O.3     
  43 O43            1.5295     1.0284    -1.1842 O.3     
  44 C44            3.6843     2.6638    -8.3547 C.3     
  45 C45            5.1121     3.0934    -8.6981 C.3     
  46 C46            3.0345     3.7218    -7.4607 C.3     
  47 C47            2.9243     5.0405    -8.2286 C.3     
  48 C48            2.4030     6.1333    -7.2932 C.3     
  49 C49            2.2928     7.4521    -8.0611 C.3     
  50 C50            1.3252     7.2801    -9.2337 C.3     
  51 C51            1.8465     6.1873   -10.1691 C.3     
  52 C52            1.9567     4.8686    -9.4012 C.3     
  53 O53            0.9427     6.0267   -11.2643 O.3     
  54 C54            1.5679     5.5983   -12.4758 C.3     
  55 O55            1.2222     8.5118    -9.9510 O.3     
  56 C56            0.1876     9.3758    -9.4767 C.3     
  57 C57            0.1696    10.6569   -10.3131 C.3     
  58 O58           -0.1891    10.3414   -11.6599 O.3     
  59 C59            5.9266    -1.4720   -10.0887 C.3     
  60 C60            9.3215    -1.4678   -10.3287 C.3     
  61 O61           10.7528    -1.2017    -7.3854 O.3     
  62 O62            8.1751    -3.8105    -7.2677 O.3     
  63 C63            6.9574    -3.9569    -6.5343 C.3     
  64 C64            8.6926    -2.6459    -3.7794 C.3     
  65 C65            9.5817    -6.4861    -2.8274 C.3     
  66 C66            3.1272    -5.4824     0.7318 C.3     
  67 O67            3.2286    -1.8775     1.9154 O.3     
  68 C68            3.7590    -1.8978     3.2422 C.3     
  69 H69            0.2078     2.9015    -0.2698 H       
  70 H70           -1.2165     2.5913    -1.2913 H       
  71 H71           -1.4151     2.8459     0.4592 H       
  72 H72           -1.5928     0.4451    -0.1055 H       
  73 H73            0.9413     1.2672     1.3758 H       
  74 H74           -0.6785     1.0423     2.0747 H       
  75 H75            0.8145    -0.9300     2.4612 H       
  76 H76           -0.6322    -1.3442     1.5121 H       
  77 H77            2.1380    -0.7483     0.3783 H       
  78 H78            0.5246    -3.2702     0.8760 H       
  79 H79            1.7166    -3.2155    -0.4363 H       
  80 H80            2.1304    -3.5466     2.4320 H       
  81 H81            5.0603    -2.6069     0.7321 H       
  82 H82            5.4601    -5.5598    -0.3229 H       
  83 H83            7.2632    -3.1010    -0.0721 H       
  84 H84            7.5634    -5.9345    -1.4143 H       
  85 H85            9.3055    -3.4414    -1.0879 H       
  86 H86           10.9668    -5.3535    -1.6521 H       
  87 H87           11.0358    -3.3661    -3.0264 H       
  88 H88           11.3346    -4.8064    -4.0218 H       
  89 H89            8.7300    -4.6695    -4.5189 H       
  90 H90            8.4680    -2.0287    -6.2621 H       
  91 H91           10.4218    -2.9777    -8.3973 H       
  92 H92            7.5094    -1.1757    -7.4100 H       
  93 H93            7.2712     0.2203   -10.0929 H       
  94 H94            3.9936     0.4043    -9.5385 H       
  95 H95            4.1097    -0.7231    -8.1627 H       
  96 H96            4.2926     1.4172    -6.6978 H       
  97 H97           -0.0018     0.2161    -6.5276 H       
  98 H98           -0.1832     3.2487    -6.7376 H       
  99 H99           -0.1558     2.0918    -8.0844 H       
 100 H100          -2.4481     3.0088    -7.3643 H       
 101 H101          -2.2858     1.2549    -7.5817 H       
 102 H102          -3.3560     2.4894    -5.3684 H       
 103 H103          -2.7372     0.8272    -5.4249 H       
 104 H104          -1.0826     3.2802    -4.6859 H       
 105 H105          -1.7675     2.1251    -3.5182 H       
 106 H106           2.1524     0.7047    -1.8492 H       
 107 H107           3.1059     2.5587    -9.2725 H       
 108 H108           5.0925     4.0766    -9.1682 H       
 109 H109           5.7072     3.1385    -7.7860 H       
 110 H110           5.5536     2.3711    -9.3847 H       
 111 H111           2.0392     3.3880    -7.1672 H       
 112 H112           3.6453     3.8699    -6.5701 H       
 113 H113           3.9066     5.3240    -8.6066 H       
 114 H114           1.4207     5.8499    -6.9152 H       
 115 H115           3.0923     6.2559    -6.4578 H       
 116 H116           1.9214     8.2306    -7.3948 H       
 117 H117           3.2750     7.7356    -8.4392 H       
 118 H118           0.3429     6.9966    -8.8557 H       
 119 H119           2.8287     6.4708   -10.5471 H       
 120 H120           2.3281     4.0900   -10.0676 H       
 121 H121           0.9744     4.5851    -9.0231 H       
 122 H122           2.0517     4.6350   -12.3140 H       
 123 H123           0.8153     5.5001   -13.2580 H       
 124 H124           2.3137     6.3330   -12.7793 H       
 125 H125          -0.7750     8.8718    -9.5634 H       
 126 H126           0.3737     9.6264    -8.4323 H       
 127 H127          -0.5588    11.3526    -9.8965 H       
 128 H128           1.1588    11.1144   -10.2982 H       
 129 H129          -0.2204    11.1080   -12.2484 H       
 130 H130           5.3990    -2.0812    -9.3548 H       
 131 H131           5.2038    -0.9795   -10.7392 H       
 132 H132           6.5795    -2.1078   -10.6868 H       
 133 H133           8.9870    -2.3616   -10.8554 H       
 134 H134           8.8665    -0.5872   -10.7822 H       
 135 H135          10.4067    -1.3913   -10.3957 H       
 136 H136          11.2905    -0.7758    -8.0670 H       
 137 H137           6.3460    -4.7321    -6.9962 H       
 138 H138           7.1843    -4.2377    -5.5058 H       
 139 H139           6.4132    -3.0125    -6.5415 H       
 140 H140           9.3856    -1.8128    -3.6623 H       
 141 H141           7.8806    -2.3523    -4.4447 H       
 142 H142           8.2843    -2.9185    -2.8062 H       
 143 H143           8.7031    -6.3166    -3.4499 H       
 144 H144          10.3604    -6.9652    -3.4208 H       
 145 H145           9.3148    -7.1305    -1.9899 H       
 146 H146           2.6612    -5.6013    -0.2463 H       
 147 H147           4.0053    -6.1249     0.7965 H       
 148 H148           2.4157    -5.7601     1.5094 H       
 149 H149           4.2522    -0.9485     3.4509 H       
 150 H150           2.9488    -2.0509     3.9551 H       
 151 H151           4.4806    -2.7097     3.3326 H       
@<TRIPOS>BOND
   1    1    2 1
   2    1   69 1
   3    1   70 1
   4    1   71 1
   5    2    3 1
   6    2   41 1
   7    2   72 1
   8    3    4 1
   9    3   73 1
  10    3   74 1
  11    4    5 1
  12    4   75 1
  13    4   76 1
  14    5    6 1
  15    5   42 1
  16    5   77 1
  17    6    7 1
  18    6   78 1
  19    6   79 1
  20    7    8 1
  21    7   67 1
  22    7   80 1
  23    8    9 2
  24    8   66 1
  25    9   10 1
  26    9   81 1
  27   10   11 2
  28   10   82 1
  29   11   12 1
  30   11   83 1
  31   12   13 2
  32   12   84 1
  33   13   14 1
  34   13   85 1
  35   14   15 1
  36   14   65 1
  37   14   86 1
  38   15   16 1
  39   15   87 1
  40   15   88 1
  41   16   17 1
  42   16   64 1
  43   16   89 1
  44   17   18 2
  45   17   19 1
  46   19   20 1
  47   19   62 1
  48   19   90 1
  49   20   21 1
  50   20   61 1
  51   20   91 1
  52   21   22 2
  53   21   60 1
  54   22   23 1
  55   22   92 1
  56   23   24 1
  57   23   59 1
  58   23   93 1
  59   24   25 2
  60   24   26 1
  61   26   27 1
  62   26   94 1
  63   26   95 1
  64   27   28 1
  65   27   44 1
  66   27   96 1
  67   28   29 1
  68   29   30 2
  69   29   31 1
  70   31   32 1
  71   31   36 1
  72   31   97 1
  73   32   33 1
  74   32   98 1
  75   32   99 1
  76   33   34 1
  77   33  100 1
  78   33  101 1
  79   34   35 1
  80   34  102 1
  81   34  103 1
  82   35   36 1
  83   35  104 1
  84   35  105 1
  85   36   37 am
  86   37   38 2
  87   37   39 1
  88   39   40 2
  89   39   41 1
  90   41   42 1
  91   41   43 1
  92   43  106 1
  93   44   45 1
  94   44   46 1
  95   44  107 1
  96   45  108 1
  97   45  109 1
  98   45  110 1
  99   46   47 1
 100   46  111 1
 101   46  112 1
 102   47   48 1
 103   47   52 1
 104   47  113 1
 105   48   49 1
 106   48  114 1
 107   48  115 1
 108   49   50 1
 109   49  116 1
 110   49  117 1
 111   50   51 1
 112   50   55 1
 113   50  118 1
 114   51   52 1
 115   51   53 1
 116   51  119 1
 117   52  120 1
 118   52  121 1
 119   53   54 1
 120   54  122 1
 121   54  123 1
 122   54  124 1
 123   55   56 1
 124   56   57 1
 125   56  125 1
 126   56  126 1
 127   57   58 1
 128   57  127 1
 129   57  128 1
 130   58  129 1
 131   59  130 1
 132   59  131 1
 133   59  132 1
 134   60  133 1
 135   60  134 1
 136   60  135 1
 137   61  136 1
 138   62   63 1
 139   63  137 1
 140   63  138 1
 141   63  139 1
 142   64  140 1
 143   64  141 1
 144   64  142 1
 145   65  143 1
 146   65  144 1
 147   65  145 1
 148   66  146 1
 149   66  147 1
 150   66  148 1
 151   67   68 1
 152   68  149 1
 153   68  150 1
 154   68  151 1

#	End of record

