#	Name: ASD03430440
#	Creating user name:	WinNT
#	Creation time:	15. 06. 2019 20:41

#	Modifying user name:	WinNT
#	Modification time:	15. 06. 2019 20:41

#	Program:	/corina/corina34_cracker 3.40 0067  02.08.2006

@<TRIPOS>MOLECULE
ASD03430440
  39   42    0    0    0
SMALL
NO_CHARGES


@<TRIPOS>ATOM
   1 N1            -0.4498     1.4304     1.0245 N.am    
   2 C2            -0.9468     0.4892     1.8456 C.2     
   3 C3             0.1794     0.0025     2.7083 C.2     
   4 C4             1.3532     0.7807     2.2711 C.ar    
   5 C5             2.6883     0.7982     2.6753 C.ar    
   6 C6             3.5774     1.6577     2.0628 C.ar    
   7 C7             3.1446     2.4992     1.0514 C.ar    
   8 C8             1.8230     2.4904     0.6432 C.ar    
   9 C9             0.9112     1.6320     1.2460 C.ar    
  10 O10           -2.0966     0.1043     1.8824 O.2     
  11 O11            0.1344    -0.8450     3.5757 O.2     
  12 C12           -1.2377     2.1488     0.0198 C.3     
  13 C13           -1.7460     1.1740    -1.0109 C.ar    
  14 C14           -2.7934     1.5289    -1.8405 C.ar    
  15 C15           -3.2597     0.6347    -2.7859 C.ar    
  16 C16           -2.6784    -0.6141    -2.9022 C.ar    
  17 C17           -1.6305    -0.9686    -2.0733 C.ar    
  18 C18           -1.1613    -0.0728    -1.1307 C.ar    
  19 C19           -2.4053     2.8275     0.6883 C.ar    
  20 C20           -2.3624     4.1855     0.9427 C.ar    
  21 C21           -3.4334     4.8081     1.5560 C.ar    
  22 C22           -4.5477     4.0727     1.9144 C.ar    
  23 C23           -4.5911     2.7148     1.6592 C.ar    
  24 C24           -3.5218     2.0930     1.0420 C.ar    
  25 Cl25           1.3020     3.5541    -0.6260 Cl      
  26 H26            3.0246     0.1421     3.4645 H       
  27 H27            4.6119     1.6744     2.3726 H       
  28 H28            3.8461     3.1694     0.5770 H       
  29 H29           -0.6116     2.8974    -0.4657 H       
  30 H30           -3.2475     2.5045    -1.7497 H       
  31 H31           -4.0784     0.9117    -3.4335 H       
  32 H32           -3.0433    -1.3129    -3.6404 H       
  33 H33           -1.1766    -1.9444    -2.1638 H       
  34 H34           -0.3402    -0.3484    -0.4856 H       
  35 H35           -1.4918     4.7601     0.6627 H       
  36 H36           -3.3996     5.8690     1.7554 H       
  37 H37           -5.3842     4.5589     2.3942 H       
  38 H38           -5.4615     2.1402     1.9395 H       
  39 H39           -3.5571     1.0328     0.8393 H       
@<TRIPOS>BOND
   1    1    2 am
   2    1    9 1
   3    1   12 1
   4    2    3 1
   5    2   10 2
   6    3    4 1
   7    3   11 2
   8    4    5 ar
   9    4    9 ar
  10    5    6 ar
  11    5   26 1
  12    6    7 ar
  13    6   27 1
  14    7    8 ar
  15    7   28 1
  16    8    9 ar
  17    8   25 1
  18   12   13 1
  19   12   19 1
  20   12   29 1
  21   13   14 ar
  22   13   18 ar
  23   14   15 ar
  24   14   30 1
  25   15   16 ar
  26   15   31 1
  27   16   17 ar
  28   16   32 1
  29   17   18 ar
  30   17   33 1
  31   18   34 1
  32   19   20 ar
  33   19   24 ar
  34   20   21 ar
  35   20   35 1
  36   21   22 ar
  37   21   36 1
  38   22   23 ar
  39   22   37 1
  40   23   24 ar
  41   23   38 1
  42   24   39 1

#	End of record

