#	Name: ASD03430120
#	Creating user name:	WinNT
#	Creation time:	15. 06. 2019 20:40

#	Modifying user name:	WinNT
#	Modification time:	15. 06. 2019 20:40

#	Program:	/corina/corina34_cracker 3.40 0067  02.08.2006

@<TRIPOS>MOLECULE
ASD03430120
  53   59    0    0    0
SMALL
NO_CHARGES


@<TRIPOS>ATOM
   1 C1             0.4948     1.1044    -0.6369 C.ar    
   2 C2             0.4592    -0.2735    -0.4878 C.ar    
   3 C3             1.6237    -0.9781    -0.2669 C.ar    
   4 C4             2.8456    -0.3178    -0.1800 C.ar    
   5 C5             2.8783     1.0644    -0.3341 C.ar    
   6 C6             1.7108     1.7737    -0.5605 C.ar    
   7 O7             3.8627    -1.1916     0.0693 O.3     
   8 C8             1.9148    -2.4443    -0.0907 C.3     
   9 C9             3.4372    -2.5255    -0.2691 C.3     
  10 C10            0.5960    -3.9976     0.9884 C.ar    
  11 C11            1.4797    -2.9561     1.2500 C.ar    
  12 C12            1.1902    -3.2939    -1.0950 C.2     
  13 N13            0.4480    -4.1710    -0.3902 N.am    
  14 O14            1.2590    -3.2075    -2.3029 O.2     
  15 C15            1.7810    -2.5991     2.5573 C.ar    
  16 C16            1.1938    -3.2904     3.6179 C.ar    
  17 C17            0.3174    -4.3246     3.3583 C.ar    
  18 C18            0.0183    -4.6791     2.0579 C.ar    
  19 O19           -0.6635     1.7837    -0.8622 O.3     
  20 C20           -0.6337     3.1978    -0.6395 C.3     
  21 C21            0.6328     3.7607    -1.2986 C.3     
  22 O22            1.7690     3.1267    -0.7022 O.3     
  23 C23           -0.4134    -5.1878    -0.9988 C.3     
  24 C24            2.7244    -1.4870     2.8259 C.ar    
  25 C25            2.4339    -0.2013     2.3593 C.ar    
  26 C26            3.2933     0.8303     2.6001 C.ar    
  27 C27            4.4728     0.6023     3.3181 C.ar    
  28 C28            4.7734    -0.6885     3.7917 C.ar    
  29 C29            3.8903    -1.7279     3.5456 C.ar    
  30 C30            5.4119     1.6940     3.5890 C.2     
  31 C31            6.5396     1.4113     4.2904 C.2     
  32 C32            6.7776     0.0933     4.7352 C.2     
  33 O33            5.9134    -0.9022     4.4837 O.3     
  34 O34            7.7929    -0.1469     5.3632 O.2     
  35 H35           -0.4839    -0.7967    -0.5445 H       
  36 H36            3.8211     1.5881    -0.2768 H       
  37 H37            3.6939    -2.7635    -1.3013 H       
  38 H38            3.8688    -3.2550     0.4163 H       
  39 H39            1.4243    -3.0176     4.6371 H       
  40 H40           -0.1374    -4.8605     4.1783 H       
  41 H41           -0.6690    -5.4902     1.8681 H       
  42 H42           -1.5156     3.6587    -1.0843 H       
  43 H43           -0.6124     3.4010     0.4312 H       
  44 H44            0.6149     3.5508    -2.3680 H       
  45 H45            0.6845     4.8372    -1.1356 H       
  46 H46           -1.4114    -4.7759    -1.1491 H       
  47 H47            0.0036    -5.4896    -1.9595 H       
  48 H48           -0.4735    -6.0544    -0.3404 H       
  49 H49            1.5242    -0.0240     1.8048 H       
  50 H50            3.0640     1.8213     2.2371 H       
  51 H51            4.1103    -2.7226     3.9040 H       
  52 H52            5.2126     2.6964     3.2400 H       
  53 H53            7.2528     2.1929     4.5069 H       
@<TRIPOS>BOND
   1    1    2 ar
   2    1    6 ar
   3    1   19 1
   4    2    3 ar
   5    2   35 1
   6    3    4 ar
   7    3    8 1
   8    4    5 ar
   9    4    7 1
  10    5    6 ar
  11    5   36 1
  12    6   22 1
  13    7    9 1
  14    8    9 1
  15    8   11 1
  16    8   12 1
  17    9   37 1
  18    9   38 1
  19   10   11 ar
  20   10   13 1
  21   10   18 ar
  22   11   15 ar
  23   12   13 am
  24   12   14 2
  25   13   23 1
  26   15   16 ar
  27   15   24 1
  28   16   17 ar
  29   16   39 1
  30   17   18 ar
  31   17   40 1
  32   18   41 1
  33   19   20 1
  34   20   21 1
  35   20   42 1
  36   20   43 1
  37   21   22 1
  38   21   44 1
  39   21   45 1
  40   23   46 1
  41   23   47 1
  42   23   48 1
  43   24   25 ar
  44   24   29 ar
  45   25   26 ar
  46   25   49 1
  47   26   27 ar
  48   26   50 1
  49   27   28 ar
  50   27   30 1
  51   28   29 ar
  52   28   33 1
  53   29   51 1
  54   30   31 2
  55   30   52 1
  56   31   32 1
  57   31   53 1
  58   32   33 1
  59   32   34 2

#	End of record

