#	Name: ASD01884913
#	Creating user name:	WinNT
#	Creation time:	15. 06. 2019 19:49

#	Modifying user name:	WinNT
#	Modification time:	15. 06. 2019 19:49

#	Program:	/corina/corina34_cracker 3.40 0067  02.08.2006

@<TRIPOS>MOLECULE
ASD01884913
  56   61    0    0    0
SMALL
NO_CHARGES


@<TRIPOS>ATOM
   1 C1             0.5031     1.5005     0.1390 C.ar    
   2 C2             0.3444     0.1292     0.0964 C.ar    
   3 C3             1.4601    -0.6984    -0.0304 C.ar    
   4 C4             2.7337    -0.1389    -0.1221 C.ar    
   5 C5             2.8792     1.2383    -0.0865 C.ar    
   6 C6             1.7683     2.0493     0.0557 C.ar    
   7 C7             1.2918    -2.1704    -0.0671 C.2     
   8 C8             1.5671    -2.8755    -1.2232 C.2     
   9 C9             0.8529    -2.8687     1.0840 C.2     
  10 C10            0.7015    -4.2060     1.0489 C.2     
  11 N11            0.9662    -4.9101    -0.0904 N.pl3   
  12 C12            1.3984    -4.2707    -1.2272 C.2     
  13 C13            0.9037    -6.2322    -0.4087 C.2     
  14 N14            1.2726    -6.3548    -1.6578 N.2     
  15 N15            1.5678    -5.2038    -2.1514 N.2     
  16 O16            4.1136     1.7985    -0.2178 O.3     
  17 C17            4.3371     2.5097    -1.4411 C.3     
  18 C18            3.8494     3.9381    -1.3293 C.3     
  19 N19            2.4031     4.0507    -1.1594 N.3     
  20 C20            1.9492     3.5523     0.1437 C.3     
  21 C21            1.9766     5.3587    -1.3691 C.ar    
  22 C22            2.8944     6.3801    -1.6125 C.ar    
  23 C23            2.4308     7.6631    -1.8153 C.ar    
  24 N24            1.1385     7.9290    -1.7808 N.ar    
  25 C25            0.2388     6.9901    -1.5535 C.ar    
  26 C26            0.6196     5.6812    -1.3472 C.ar    
  27 C27            0.4856    -7.3509     0.5104 C.3     
  28 C28           -0.7271    -8.1879     0.0983 C.3     
  29 C29            0.6792    -8.7844     0.0120 C.3     
  30 C30           -1.2237     7.3525    -1.5256 C.3     
  31 C31            2.0406    -2.1589    -2.4615 C.3     
  32 F32            3.4190    -1.9363    -2.3731 F       
  33 F33            1.7661    -2.9425    -3.5875 F       
  34 F34            1.3765    -0.9327    -2.5735 F       
  35 H35           -0.3602     2.1425     0.2327 H       
  36 H36           -0.6434    -0.3024     0.1616 H       
  37 H37            3.6011    -0.7749    -0.2200 H       
  38 H38            0.6392    -2.3267     1.9933 H       
  39 H39            0.3669    -4.7282     1.9330 H       
  40 H40            5.4038     2.5115    -1.6651 H       
  41 H41            3.8025     2.0104    -2.2491 H       
  42 H42            4.3384     4.4078    -0.4759 H       
  43 H43            4.1373     4.4765    -2.2323 H       
  44 H44            0.9995     4.0200     0.4032 H       
  45 H45            2.6941     3.7867     0.9042 H       
  46 H46            3.9532     6.1695    -1.6414 H       
  47 H47            3.1343     8.4604    -2.0045 H       
  48 H48           -0.1216     4.9179    -1.1617 H       
  49 H49            0.6299    -7.1639     1.5745 H       
  50 H50           -1.3803    -8.5518     0.8914 H       
  51 H51           -1.2225    -7.9294    -0.8375 H       
  52 H52            1.1090    -8.9184    -0.9807 H       
  53 H53            0.9511    -9.5408     0.7482 H       
  54 H54           -1.6409     7.2574    -2.5281 H       
  55 H55           -1.7514     6.6818    -0.8474 H       
  56 H56           -1.3368     8.3804    -1.1810 H       
@<TRIPOS>BOND
   1    1    2 ar
   2    1    6 ar
   3    1   35 1
   4    2    3 ar
   5    2   36 1
   6    3    4 ar
   7    3    7 1
   8    4    5 ar
   9    4   37 1
  10    5    6 ar
  11    5   16 1
  12    6   20 1
  13    7    8 2
  14    7    9 1
  15    8   31 1
  16    8   12 1
  17    9   10 2
  18    9   38 1
  19   10   11 1
  20   10   39 1
  21   11   12 1
  22   11   13 1
  23   12   15 2
  24   13   14 2
  25   13   27 1
  26   14   15 1
  27   16   17 1
  28   17   18 1
  29   17   40 1
  30   17   41 1
  31   18   19 1
  32   18   42 1
  33   18   43 1
  34   19   20 1
  35   19   21 1
  36   20   44 1
  37   20   45 1
  38   21   22 ar
  39   21   26 ar
  40   22   23 ar
  41   22   46 1
  42   23   24 ar
  43   23   47 1
  44   24   25 ar
  45   25   26 ar
  46   25   30 1
  47   26   48 1
  48   27   28 1
  49   27   29 1
  50   27   49 1
  51   28   29 1
  52   28   50 1
  53   28   51 1
  54   29   52 1
  55   29   53 1
  56   30   54 1
  57   30   55 1
  58   30   56 1
  59   31   32 1
  60   31   33 1
  61   31   34 1

#	End of record

