#	Name: ASD01883084
#	Creating user name:	WinNT
#	Creation time:	15. 06. 2019 19:45

#	Modifying user name:	WinNT
#	Modification time:	15. 06. 2019 19:45

#	Program:	/corina/corina34_cracker 3.40 0067  02.08.2006

@<TRIPOS>MOLECULE
ASD01883084
  63   66    0    0    0
SMALL
NO_CHARGES


@<TRIPOS>ATOM
   1 N1            -0.0162     1.3417     0.0094 N.am    
   2 C2             0.0021    -0.0041     0.0020 C.2     
   3 C3            -1.2161    -0.7274     0.0102 C.2     
   4 C4            -2.4261    -0.0112     0.0261 C.2     
   5 C5            -2.3786     1.3968     0.0332 C.2     
   6 C6            -1.1850     2.0325     0.0299 C.2     
   7 O7             1.0657    -0.6000    -0.0122 O.2     
   8 C8            -1.2151    -2.1594     0.0021 C.1     
   9 N9            -1.2144    -3.2953    -0.0044 N.1     
  10 C10            1.2513     2.0764     0.0013 C.3     
  11 C11            1.6723     2.3359    -1.4223 C.ar    
  12 C12            1.2643     3.4913    -2.0629 C.ar    
  13 C13            1.6489     3.7316    -3.3678 C.ar    
  14 C14            2.4452     2.8124    -4.0354 C.ar    
  15 C15            2.8532     1.6539    -3.3904 C.ar    
  16 C16            2.4705     1.4210    -2.0836 C.ar    
  17 C17           -3.7218    -0.7213     0.0347 C.ar    
  18 C18           -4.5708    -0.6162     1.1391 C.ar    
  19 C19           -5.7778    -1.2797     1.1433 C.ar    
  20 C20           -6.1513    -2.0534     0.0510 C.ar    
  21 C21           -5.3094    -2.1609    -1.0494 C.ar    
  22 C22           -4.1037    -1.4950    -1.0640 C.ar    
  23 O23           -7.3417    -2.7063     0.0591 O.3     
  24 C24           -7.6630    -3.4838    -1.0960 C.3     
  25 C25           -9.0318    -4.1399    -0.9045 C.3     
  26 C26           -9.3759    -4.9724    -2.1413 C.3     
  27 N27          -10.6902    -5.6023    -1.9574 N.3     
  28 C28          -11.1612    -6.2134    -3.2088 C.3     
  29 C29          -12.5023    -6.9080    -2.9580 C.3     
  30 O30          -13.4348    -5.9584    -2.4347 O.3     
  31 C31          -13.0081    -5.3441    -1.2156 C.3     
  32 C32          -11.6722    -4.6337    -1.4488 C.3     
  33 O33            2.8245     3.0462    -5.3193 O.3     
  34 C34            3.6442     2.0564    -5.9441 C.3     
  35 F35            2.9625     0.8350    -5.9701 F       
  36 F36            3.9394     2.4537    -7.2527 F       
  37 F37            4.8332     1.9116    -5.2213 F       
  38 H38           -3.2949     1.9683     0.0453 H       
  39 H39           -1.1610     3.1122     0.0354 H       
  40 H40            1.1242     3.0258     0.5214 H       
  41 H41            2.0168     1.4859     0.5046 H       
  42 H42            0.6442     4.2064    -1.5428 H       
  43 H43            1.3297     4.6340    -3.8679 H       
  44 H44            3.4731     0.9368    -3.9081 H       
  45 H45            2.7879     0.5192    -1.5810 H       
  46 H46           -4.2809    -0.0157     1.9887 H       
  47 H47           -6.4347    -1.1990     1.9968 H       
  48 H48           -5.6031    -2.7634    -1.8962 H       
  49 H49           -3.4501    -1.5788    -1.9197 H       
  50 H50           -7.6895    -2.8373    -1.9733 H       
  51 H51           -6.9064    -4.2558    -1.2363 H       
  52 H52           -9.0054    -4.7863    -0.0273 H       
  53 H53           -9.7884    -3.3679    -0.7642 H       
  54 H54           -9.4024    -4.3259    -3.0185 H       
  55 H55           -8.6193    -5.7444    -2.2816 H       
  56 H56          -11.2879    -5.4400    -3.9663 H       
  57 H57          -10.4310    -6.9455    -3.5537 H       
  58 H58          -12.8831    -7.3135    -3.8954 H       
  59 H59          -12.3647    -7.7166    -2.2402 H       
  60 H60          -13.7548    -4.6186    -0.8929 H       
  61 H61          -12.8853    -6.1073    -0.4471 H       
  62 H62          -11.3150    -4.2126    -0.5090 H       
  63 H63          -11.8071    -3.8350    -2.1782 H       
@<TRIPOS>BOND
   1    1    2 am
   2    1   10 1
   3    1    6 1
   4    2    3 1
   5    2    7 2
   6    3    4 2
   7    3    8 1
   8    4    5 1
   9    4   17 1
  10    5    6 2
  11    5   38 1
  12    6   39 1
  13    8    9 3
  14   10   11 1
  15   10   40 1
  16   10   41 1
  17   11   12 ar
  18   11   16 ar
  19   12   13 ar
  20   12   42 1
  21   13   14 ar
  22   13   43 1
  23   14   15 ar
  24   14   33 1
  25   15   16 ar
  26   15   44 1
  27   16   45 1
  28   17   18 ar
  29   17   22 ar
  30   18   19 ar
  31   18   46 1
  32   19   20 ar
  33   19   47 1
  34   20   21 ar
  35   20   23 1
  36   21   22 ar
  37   21   48 1
  38   22   49 1
  39   23   24 1
  40   24   25 1
  41   24   50 1
  42   24   51 1
  43   25   26 1
  44   25   52 1
  45   25   53 1
  46   26   27 1
  47   26   54 1
  48   26   55 1
  49   27   28 1
  50   27   32 1
  51   28   29 1
  52   28   56 1
  53   28   57 1
  54   29   30 1
  55   29   58 1
  56   29   59 1
  57   30   31 1
  58   31   32 1
  59   31   60 1
  60   31   61 1
  61   32   62 1
  62   32   63 1
  63   33   34 1
  64   34   35 1
  65   34   36 1
  66   34   37 1

#	End of record

