#	Name: ASD03330052
#	Creating user name:	WinNT
#	Creation time:	15. 06. 2019 20:36

#	Modifying user name:	WinNT
#	Modification time:	15. 06. 2019 20:36

#	Program:	/corina/corina34_cracker 3.40 0067  02.08.2006

@<TRIPOS>MOLECULE
ASD03330052
  71   75    0    0    0
SMALL
NO_CHARGES


@<TRIPOS>ATOM
   1 C1             0.1328     1.4743     0.0165 C.2     
   2 C2             0.0268     0.2603     0.6262 C.2     
   3 C3             1.3324     2.1222     0.2270 C.2     
   4 C4             2.2188     1.4291     1.0192 C.2     
   5 S5             1.5016    -0.0983     1.5125 S.3     
   6 C6             3.5665     1.8965     1.3967 C.ar    
   7 C7             3.9711     1.8669     2.7344 C.ar    
   8 C8             4.4465     2.3655     0.4182 C.ar    
   9 C9             5.7045     2.8009     0.7781 C.ar    
  10 C10            6.0971     2.7739     2.1052 C.ar    
  11 C11            5.2339     2.3062     3.0796 C.ar    
  12 C12            1.6406     3.4519    -0.3517 C.ar    
  13 C13            1.5496     3.6528    -1.7284 C.ar    
  14 C14            2.0167     4.5057     0.4802 C.ar    
  15 C15            2.3028     5.7415    -0.0613 C.ar    
  16 C16            2.2168     5.9366    -1.4330 C.ar    
  17 C17            1.8372     4.8911    -2.2635 C.ar    
  18 Cl18           2.8888     1.2802     3.9583 Cl      
  19 C19           -1.1448    -0.6172     0.5539 C.2     
  20 O20           -2.2639    -0.1465     0.6407 O.2     
  21 N21           -0.9831    -1.9453     0.3913 N.am    
  22 O22            2.4994     7.1556    -1.9635 O.3     
  23 O23            2.9589    10.1952    -5.6915 O.3     
  24 C24           -2.1467    -2.8253     0.2174 C.3     
  25 C25            0.3604    -2.5398     0.3785 C.3     
  26 C26            0.5202    -3.3698    -0.8991 C.3     
  27 C27           -0.6187    -4.3884    -0.9866 C.3     
  28 C28           -1.9537    -3.6516    -1.0581 C.3     
  29 C29           -0.4458    -5.2296    -2.2249 C.ar    
  30 C30           -1.3765    -5.1581    -3.2446 C.ar    
  31 C31           -1.2179    -5.9298    -4.3805 C.ar    
  32 C32           -0.1285    -6.7727    -4.4969 C.ar    
  33 C33            0.8027    -6.8435    -3.4777 C.ar    
  34 C34            0.6464    -6.0686    -2.3437 C.ar    
  35 C35           -0.5928    -5.2763     0.2308 C.2     
  36 N36           -1.5896    -6.1583     0.4429 N.am    
  37 O37            0.3249    -5.1971     1.0197 O.2     
  38 C38            2.3909     7.2866    -3.3823 C.3     
  39 C39            2.7447     8.7180    -3.7908 C.3     
  40 C40            2.6284     8.8583    -5.3099 C.3     
  41 H41           -0.6580     1.8940    -0.5876 H       
  42 H42            4.1423     2.3867    -0.6179 H       
  43 H43            6.3855     3.1636     0.0224 H       
  44 H44            7.0837     3.1159     2.3806 H       
  45 H45            5.5468     2.2884     4.1131 H       
  46 H46            1.2547     2.8397    -2.3751 H       
  47 H47            2.0834     4.3546     1.5475 H       
  48 H48            2.5938     6.5583     0.5825 H       
  49 H49            1.7712     5.0462    -3.3302 H       
  50 H50            2.9064    10.3569    -6.6434 H       
  51 H51           -2.2320    -3.4922     1.0753 H       
  52 H52           -3.0507    -2.2227     0.1290 H       
  53 H53            1.1102    -1.7488     0.3965 H       
  54 H54            0.4838    -3.1829     1.2499 H       
  55 H55            0.4870    -2.7115    -1.7672 H       
  56 H56            1.4758    -3.8937    -0.8755 H       
  57 H57           -2.7644    -4.3751    -1.1440 H       
  58 H58           -1.9597    -2.9930    -1.9266 H       
  59 H59           -2.2276    -4.4996    -3.1536 H       
  60 H60           -1.9454    -5.8744    -5.1768 H       
  61 H61           -0.0050    -7.3761    -5.3841 H       
  62 H62            1.6536    -7.5023    -3.5685 H       
  63 H63            1.3739    -6.1240    -1.5473 H       
  64 H64           -2.2849    -6.2738    -0.2235 H       
  65 H65           -1.6116    -6.6776     1.2619 H       
  66 H66            3.0772     6.5909    -3.8650 H       
  67 H67            1.3697     7.0626    -3.6908 H       
  68 H68            2.0583     9.4138    -3.3081 H       
  69 H69            3.7658     8.9420    -3.4823 H       
  70 H70            1.6073     8.6343    -5.6184 H       
  71 H71            3.3147     8.1625    -5.7926 H       
@<TRIPOS>BOND
   1    1    2 2
   2    1    3 1
   3    1   41 1
   4    2   19 1
   5    2    5 1
   6    3    4 2
   7    3   12 1
   8    4    5 1
   9    4    6 1
  10    6    7 ar
  11    6    8 ar
  12    7   18 1
  13    7   11 ar
  14    8    9 ar
  15    8   42 1
  16    9   10 ar
  17    9   43 1
  18   10   11 ar
  19   10   44 1
  20   11   45 1
  21   12   13 ar
  22   12   14 ar
  23   13   17 ar
  24   13   46 1
  25   14   15 ar
  26   14   47 1
  27   15   16 ar
  28   15   48 1
  29   16   17 ar
  30   16   22 1
  31   17   49 1
  32   19   20 2
  33   19   21 am
  34   21   24 1
  35   21   25 1
  36   22   38 1
  37   23   40 1
  38   23   50 1
  39   24   28 1
  40   24   51 1
  41   24   52 1
  42   25   26 1
  43   25   53 1
  44   25   54 1
  45   26   27 1
  46   26   55 1
  47   26   56 1
  48   27   28 1
  49   27   29 1
  50   27   35 1
  51   28   57 1
  52   28   58 1
  53   29   30 ar
  54   29   34 ar
  55   30   31 ar
  56   30   59 1
  57   31   32 ar
  58   31   60 1
  59   32   33 ar
  60   32   61 1
  61   33   34 ar
  62   33   62 1
  63   34   63 1
  64   35   36 am
  65   35   37 2
  66   36   64 1
  67   36   65 1
  68   38   39 1
  69   38   66 1
  70   38   67 1
  71   39   40 1
  72   39   68 1
  73   39   69 1
  74   40   70 1
  75   40   71 1

#	End of record

