#	Name: ASD01880695
#	Creating user name:	WinNT
#	Creation time:	15. 06. 2019 19:41

#	Modifying user name:	WinNT
#	Modification time:	15. 06. 2019 19:41

#	Program:	/corina/corina34_cracker 3.40 0067  02.08.2006

@<TRIPOS>MOLECULE
ASD01880695
  38   40    0    0    0
SMALL
NO_CHARGES


@<TRIPOS>ATOM
   1 N1            -0.0158     1.3145     0.0093 N.ar    
   2 C2             0.0021    -0.0041     0.0020 C.ar    
   3 N3             1.1332    -0.6825    -0.0124 N.ar    
   4 C4             2.2992    -0.0568    -0.0202 C.ar    
   5 C5             2.3211     1.3288    -0.0130 C.ar    
   6 C6             1.1122     2.0078     0.0022 C.ar    
   7 C7             3.6277     2.0797    -0.0209 C.3     
   8 O8             4.7119     1.1490    -0.0359 O.3     
   9 C9             5.9670     1.6652    -0.0446 C.ar    
  10 C10            7.0683     0.8148    -0.0592 C.ar    
  11 C11            8.3373     1.3383    -0.0685 C.ar    
  12 C12            8.5315     2.7236    -0.0633 C.ar    
  13 C13            7.4219     3.5732    -0.0490 C.ar    
  14 C14            6.1510     3.0428    -0.0447 C.ar    
  15 C15            9.7112     0.7158    -0.0846 C.3     
  16 N16           10.6658     1.8302    -0.0879 N.am    
  17 C17            9.9810     2.9866    -0.0756 C.2     
  18 O18           10.4860     4.0926    -0.0752 O.2     
  19 Br19          -1.6370    -0.9471     0.0132 Br      
  20 C20            7.6159     5.0677    -0.0427 C.3     
  21 I21            1.0710     4.1024     0.0132 I       
  22 C22           12.6201     1.6658    -1.5491 C.3     
  23 C23           12.1252     1.7031    -0.1019 C.3     
  24 H24            3.2215    -0.6185    -0.0317 H       
  25 H25            3.6785     2.7110    -0.9080 H       
  26 H26            3.6948     2.7015     0.8718 H       
  27 H27            6.9249    -0.2556    -0.0630 H       
  28 H28            5.2940     3.6999    -0.0340 H       
  29 H29            9.8549     0.1020     0.8046 H       
  30 H30            9.8381     0.1111    -0.9825 H       
  31 H31            7.6536     5.4335    -1.0688 H       
  32 H32            6.7846     5.5397     0.4810 H       
  33 H33            8.5497     5.3107     0.4642 H       
  34 H34           12.3307     2.5865    -2.0559 H       
  35 H35           13.7060     1.5713    -1.5595 H       
  36 H36           12.1763     0.8132    -2.0631 H       
  37 H37           12.5691     2.5558     0.4121 H       
  38 H38           12.4147     0.7825     0.4049 H       
@<TRIPOS>BOND
   1    1    2 ar
   2    1    6 ar
   3    2    3 ar
   4    2   19 1
   5    3    4 ar
   6    4    5 ar
   7    4   24 1
   8    5    6 ar
   9    5    7 1
  10    6   21 1
  11    7    8 1
  12    7   25 1
  13    7   26 1
  14    8    9 1
  15    9   10 ar
  16    9   14 ar
  17   10   11 ar
  18   10   27 1
  19   11   12 ar
  20   11   15 1
  21   12   13 ar
  22   12   17 1
  23   13   14 ar
  24   13   20 1
  25   14   28 1
  26   15   16 1
  27   15   29 1
  28   15   30 1
  29   16   17 am
  30   16   23 1
  31   17   18 2
  32   20   31 1
  33   20   32 1
  34   20   33 1
  35   22   23 1
  36   22   34 1
  37   22   35 1
  38   22   36 1
  39   23   37 1
  40   23   38 1

#	End of record

