#	Name: ASD03090688
#	Creating user name:	WinNT
#	Creation time:	15. 06. 2019 20:29

#	Modifying user name:	WinNT
#	Modification time:	15. 06. 2019 20:29

#	Program:	/corina/corina34_cracker 3.40 0067  02.08.2006

@<TRIPOS>MOLECULE
ASD03090688
  46   48    0    0    0
SMALL
NO_CHARGES


@<TRIPOS>ATOM
   1 N1            -0.2115     1.3747     0.0728 N.am    
   2 C2            -0.4928     0.1666    -0.4544 C.2     
   3 O3             0.3417    -0.4156    -1.1201 O.2     
   4 N4            -1.6992    -0.3962    -0.2437 N.am    
   5 S5            -3.4689    -2.4886    -0.6125 S.3     
   6 C6            -1.9895    -1.6427    -0.7876 C.2     
   7 N7            -1.1841    -2.3585    -1.5130 N.2     
   8 N8            -1.6055    -3.4727    -1.9309 N.2     
   9 C9            -2.8124    -3.7994    -1.5935 C.2     
  10 C10           -3.5273    -5.0713    -1.9707 C.3     
  11 F11           -2.6474    -5.9149    -2.6572 F       
  12 F12           -3.9803    -5.7126    -0.8128 F       
  13 F13           -4.6180    -4.7671    -2.7923 F       
  14 C14            1.0823     1.9071    -0.0433 C.ar    
  15 C15            1.2615     3.2841    -0.1744 C.ar    
  16 C16            2.5408     3.8059    -0.2888 C.ar    
  17 C17            3.6383     2.9581    -0.2728 C.ar    
  18 C18            3.4574     1.5892    -0.1428 C.ar    
  19 C19            2.1833     1.0657    -0.0222 C.ar    
  20 N20            0.1526     4.1369    -0.1907 N.3     
  21 C21           -0.6659     3.9139    -1.3914 C.3     
  22 C22           -1.8968     4.8228    -1.3394 C.3     
  23 O23           -1.4736     6.1835    -1.2177 O.3     
  24 C24           -0.6747     6.4365    -0.0588 C.3     
  25 C25            0.5685     5.5439    -0.0977 C.3     
  26 O26            4.8932     3.4695    -0.3850 O.3     
  27 C27            5.9775     2.5391    -0.3610 C.3     
  28 C28            7.3009     3.2945    -0.4984 C.3     
  29 H29           -0.9039     1.8780     0.5289 H       
  30 H30           -2.3649     0.0682     0.2874 H       
  31 H31            2.6827     4.8717    -0.3907 H       
  32 H32            4.3137     0.9312    -0.1310 H       
  33 H33            2.0458    -0.0002     0.0840 H       
  34 H34           -0.0792     4.1462    -2.2801 H       
  35 H35           -0.9841     2.8719    -1.4266 H       
  36 H36           -2.4769     4.7025    -2.2543 H       
  37 H37           -2.5113     4.5545    -0.4801 H       
  38 H38           -0.3711     7.4833    -0.0474 H       
  39 H39           -1.2537     6.2151     0.8378 H       
  40 H40            1.1514     5.6918     0.8113 H       
  41 H41            1.1750     5.8023    -0.9658 H       
  42 H42            5.9670     1.9932     0.5824 H       
  43 H43            5.8723     1.8371    -1.1881 H       
  44 H44            7.3113     3.8404    -1.4418 H       
  45 H45            7.4061     3.9965     0.3288 H       
  46 H46            8.1280     2.5848    -0.4801 H       
@<TRIPOS>BOND
   1    1    2 am
   2    1   14 1
   3    1   29 1
   4    2    3 2
   5    2    4 am
   6    4    6 1
   7    4   30 1
   8    5    6 1
   9    5    9 1
  10    6    7 2
  11    7    8 1
  12    8    9 2
  13    9   10 1
  14   10   11 1
  15   10   12 1
  16   10   13 1
  17   14   15 ar
  18   14   19 ar
  19   15   16 ar
  20   15   20 1
  21   16   17 ar
  22   16   31 1
  23   17   18 ar
  24   17   26 1
  25   18   19 ar
  26   18   32 1
  27   19   33 1
  28   20   21 1
  29   20   25 1
  30   21   22 1
  31   21   34 1
  32   21   35 1
  33   22   23 1
  34   22   36 1
  35   22   37 1
  36   23   24 1
  37   24   25 1
  38   24   38 1
  39   24   39 1
  40   25   40 1
  41   25   41 1
  42   26   27 1
  43   27   28 1
  44   27   42 1
  45   27   43 1
  46   28   44 1
  47   28   45 1
  48   28   46 1

#	End of record

