#	Name: ASD04930078
#	Creating user name:	WinNT
#	Creation time:	15. 06. 2019 20:56

#	Modifying user name:	WinNT
#	Modification time:	15. 06. 2019 20:56

#	Program:	/corina/corina34_cracker 3.40 0067  02.08.2006

@<TRIPOS>MOLECULE
ASD04930078
  61   62    0    0    0
SMALL
NO_CHARGES


@<TRIPOS>ATOM
   1 N1             0.8154     1.6186    -1.3763 N.am    
   2 C2             0.9870     0.2859    -1.3560 C.2     
   3 C3             0.9711    -0.4539    -0.0948 C.2     
   4 C4             0.7741     0.2446     1.0988 C.2     
   5 C5             0.5909     1.6981     1.0310 C.ar    
   6 C6             0.3895     2.4458     2.1970 C.ar    
   7 C7             0.2202     3.7986     2.1158 C.ar    
   8 C8             0.2460     4.4389     0.8845 C.ar    
   9 C9             0.4428     3.7227    -0.2759 C.ar    
  10 C10            0.6182     2.3425    -0.2184 C.ar    
  11 C11            1.1591    -1.9098    -0.0832 C.2     
  12 O12            2.2694    -2.3812    -0.2430 O.2     
  13 N13            0.1018    -2.7243     0.1045 N.am    
  14 N14           -1.1573    -2.1824     0.3937 N.am    
  15 O15            1.1577    -0.3139    -2.4024 O.2     
  16 C16           -2.1016    -2.1219    -0.5661 C.2     
  17 C17           -3.4560    -1.5390    -0.2549 C.3     
  18 C18           -4.3328    -1.5891    -1.5078 C.3     
  19 C19           -5.7079    -0.9973    -1.1919 C.3     
  20 C20           -6.5847    -1.0475    -2.4447 C.3     
  21 C21           -7.9598    -0.4556    -2.1289 C.3     
  22 C22           -8.8366    -0.5058    -3.3817 C.3     
  23 C23          -10.2117     0.0861    -3.0658 C.3     
  24 O24           -1.8613    -2.5367    -1.6801 O.2     
  25 O25            0.7524    -0.4013     2.2833 O.3     
  26 C26            0.2692    -4.1764     0.0061 C.3     
  27 C27            0.6197    -4.7347     1.3613 C.2     
  28 C28            1.6900    -5.4758     1.5076 C.2     
  29 C29            2.4971    -5.8802     0.3009 C.3     
  30 C30            2.1140    -5.9238     2.8825 C.3     
  31 H31            0.8345     2.0843    -2.2270 H       
  32 H32            0.3676     1.9541     3.1584 H       
  33 H33            0.0649     4.3743     3.0162 H       
  34 H34            0.1100     5.5092     0.8356 H       
  35 H35            0.4607     4.2309    -1.2287 H       
  36 H36           -1.3495    -1.8506     1.2848 H       
  37 H37           -3.9261    -2.1166     0.5409 H       
  38 H38           -3.3408    -0.5039     0.0667 H       
  39 H39           -3.8627    -1.0115    -2.3036 H       
  40 H40           -4.4480    -2.6242    -1.8294 H       
  41 H41           -6.1780    -1.5749    -0.3960 H       
  42 H42           -5.5928     0.0378    -0.8702 H       
  43 H43           -6.1146    -0.4698    -3.2406 H       
  44 H44           -6.6999    -2.0825    -2.7664 H       
  45 H45           -8.4299    -1.0332    -1.3330 H       
  46 H46           -7.8447     0.5795    -1.8072 H       
  47 H47           -8.3666     0.0719    -4.1775 H       
  48 H48           -8.9518    -1.5409    -3.7033 H       
  49 H49          -10.8364     0.0503    -3.9583 H       
  50 H50          -10.6818    -0.4916    -2.2699 H       
  51 H51          -10.0966     1.1212    -2.7441 H       
  52 H52            0.8062    -1.3639     2.2074 H       
  53 H53           -0.6601    -4.6264    -0.3430 H       
  54 H54            1.0696    -4.4029    -0.6983 H       
  55 H55           -0.0115    -4.5238     2.2119 H       
  56 H56            3.2913    -5.1525     0.1345 H       
  57 H57            2.9351    -6.8639     0.4699 H       
  58 H58            1.8486    -5.9168    -0.5744 H       
  59 H59            1.4138    -5.5369     3.6228 H       
  60 H60            2.1212    -7.0130     2.9236 H       
  61 H61            3.1138    -5.5455     3.0956 H       
@<TRIPOS>BOND
   1    1    2 am
   2    1   10 1
   3    1   31 1
   4    2    3 1
   5    2   15 2
   6    3    4 2
   7    3   11 1
   8    4    5 1
   9    4   25 1
  10    5    6 ar
  11    5   10 ar
  12    6    7 ar
  13    6   32 1
  14    7    8 ar
  15    7   33 1
  16    8    9 ar
  17    8   34 1
  18    9   10 ar
  19    9   35 1
  20   11   12 2
  21   11   13 am
  22   13   14 1
  23   13   26 1
  24   14   16 am
  25   14   36 1
  26   16   17 1
  27   16   24 2
  28   17   18 1
  29   17   37 1
  30   17   38 1
  31   18   19 1
  32   18   39 1
  33   18   40 1
  34   19   20 1
  35   19   41 1
  36   19   42 1
  37   20   21 1
  38   20   43 1
  39   20   44 1
  40   21   22 1
  41   21   45 1
  42   21   46 1
  43   22   23 1
  44   22   47 1
  45   22   48 1
  46   23   49 1
  47   23   50 1
  48   23   51 1
  49   25   52 1
  50   26   27 1
  51   26   53 1
  52   26   54 1
  53   27   28 2
  54   27   55 1
  55   28   29 1
  56   28   30 1
  57   29   56 1
  58   29   57 1
  59   29   58 1
  60   30   59 1
  61   30   60 1
  62   30   61 1

#	End of record

