#	Name: ASD00310070
#	Creating user name:	WinNT
#	Creation time:	15. 06. 2019 18:33

#	Modifying user name:	WinNT
#	Modification time:	15. 06. 2019 18:33

#	Program:	/corina/corina34_cracker 3.40 0067  02.08.2006

@<TRIPOS>MOLECULE
ASD00310070
  46   47    0    0    0
SMALL
NO_CHARGES


@<TRIPOS>ATOM
   1 C1            -0.0187     1.5258     0.0104 C.3     
   2 C2             0.0021    -0.0041     0.0020 C.3     
   3 C3            -1.4333    -0.5336     0.0129 C.3     
   4 O4             1.3220     2.0204     0.0003 O.3     
   5 C5             0.7182    -0.4975    -1.2568 C.3     
   6 C6             0.7421    -0.5109     1.2415 C.3     
   7 O7            -1.4139    -1.9625     0.0050 O.3     
   8 C8            -2.6143    -2.5949     0.0131 C.ar    
   9 C9            -2.6667    -3.9842     0.0061 C.ar    
  10 C10           -3.8835    -4.6287     0.0138 C.ar    
  11 C11           -5.0650    -3.8859     0.0291 C.ar    
  12 C12           -5.0093    -2.4913     0.0365 C.ar    
  13 C13           -3.7896    -1.8523     0.0340 C.ar    
  14 O14           -7.6739    -3.8780     0.0530 O.3     
  15 B15           -6.4540    -4.6176     0.0374 Du      
  16 O16           -6.5341    -6.0420     0.0291 O.3     
  17 C17           -7.4391    -6.5379    -0.9651 C.3     
  18 C18           -8.7925    -5.8400    -0.8004 C.3     
  19 C19           -8.6038    -4.3266    -0.9407 C.3     
  20 C20           -9.7574    -6.3363    -1.8791 C.3     
  21 C21           -9.3653    -6.1570     0.5825 C.3     
  22 H22           -0.5459     1.8868    -0.8726 H       
  23 H23           -0.5289     1.8773     0.9072 H       
  24 H24           -1.9435    -0.1821     0.9097 H       
  25 H25           -1.9605    -0.1726    -0.8702 H       
  26 H26            1.3852     2.9853     0.0049 H       
  27 H27            1.7408    -0.1202    -1.2645 H       
  28 H28            0.7330    -1.5874    -1.2628 H       
  29 H29            0.1910    -0.1364    -2.1398 H       
  30 H30            0.2319    -0.1594     2.1383 H       
  31 H31            0.7568    -1.6008     1.2356 H       
  32 H32            1.7647    -0.1336     1.2338 H       
  33 H33           -1.7521    -4.5585    -0.0057 H       
  34 H34           -3.9236    -5.7079     0.0077 H       
  35 H35           -5.9220    -1.9139     0.0483 H       
  36 H36           -3.7458    -0.7733     0.0442 H       
  37 H37           -7.0400    -6.3299    -1.9578 H       
  38 H38           -7.5656    -7.6132    -0.8393 H       
  39 H39           -9.5609    -3.8250    -0.7974 H       
  40 H40           -8.2156    -4.0980    -1.9332 H       
  41 H41           -9.8899    -7.4137    -1.7802 H       
  42 H42          -10.7204    -5.8395    -1.7616 H       
  43 H43           -9.3492    -6.1093    -2.8640 H       
  44 H44           -8.6780    -5.8024     1.3505 H       
  45 H45          -10.3285    -5.6603     0.6994 H       
  46 H46           -9.4976    -7.2343     0.6827 H       
@<TRIPOS>BOND
   1    1    2 1
   2    1    4 1
   3    1   22 1
   4    1   23 1
   5    2    3 1
   6    2    5 1
   7    2    6 1
   8    3    7 1
   9    3   24 1
  10    3   25 1
  11    4   26 1
  12    5   27 1
  13    5   28 1
  14    5   29 1
  15    6   30 1
  16    6   31 1
  17    6   32 1
  18    7    8 1
  19    8    9 ar
  20    8   13 ar
  21    9   10 ar
  22    9   33 1
  23   10   11 ar
  24   10   34 1
  25   11   12 ar
  26   11   15 1
  27   12   13 ar
  28   12   35 1
  29   13   36 1
  30   14   15 1
  31   14   19 1
  32   15   16 1
  33   16   17 1
  34   17   18 1
  35   17   37 1
  36   17   38 1
  37   18   19 1
  38   18   20 1
  39   18   21 1
  40   19   39 1
  41   19   40 1
  42   20   41 1
  43   20   42 1
  44   20   43 1
  45   21   44 1
  46   21   45 1
  47   21   46 1

#	End of record

