#	Name: ASD01881214
#	Creating user name:	WinNT
#	Creation time:	15. 06. 2019 19:42

#	Modifying user name:	WinNT
#	Modification time:	15. 06. 2019 19:42

#	Program:	/corina/corina34_cracker 3.40 0067  02.08.2006

@<TRIPOS>MOLECULE
ASD01881214
  62   63    0    0    0
SMALL
NO_CHARGES


@<TRIPOS>ATOM
   1 C1            -0.1977     1.4394     1.3824 C.2     
   2 C2            -0.1751    -0.0106     1.1147 C.ar    
   3 C3             0.9909    -0.6175     0.6389 C.ar    
   4 C4             1.0076    -1.9716     0.3903 C.ar    
   5 C5            -0.1328    -2.7351     0.6117 C.ar    
   6 C6            -1.2945    -2.1355     1.0843 C.ar    
   7 C7            -1.3180    -0.7831     1.3415 C.ar    
   8 O8             0.7981     2.1083     1.1894 O.2     
   9 O9            -1.3242     2.0234     1.8357 O.3     
  10 O10           -0.1120    -4.0694     0.3653 O.3     
  11 C11           -1.3183    -4.7939     0.6145 C.3     
  12 C12           -1.1036    -6.2717     0.2813 C.3     
  13 C13           -2.3951    -7.0474     0.5481 C.3     
  14 C14           -2.1804    -8.5252     0.2149 C.3     
  15 O15           -3.3867    -9.2498     0.4641 O.3     
  16 C16           -3.3659   -10.5837     0.2178 C.ar    
  17 C17           -4.5071   -11.3471     0.4394 C.ar    
  18 C18           -4.4944   -12.6907     0.1940 C.ar    
  19 C19           -3.3295   -13.3045    -0.2827 C.ar    
  20 C20           -2.1802   -12.5363    -0.5061 C.ar    
  21 C21           -2.2053   -11.1820    -0.2609 C.ar    
  22 C22           -3.3131   -14.7491    -0.5470 C.2     
  23 C23           -2.0248   -15.4303    -0.9307 C.3     
  24 C24           -2.2822   -16.9227    -1.1482 C.3     
  25 C25           -3.2122   -17.1102    -2.3486 C.3     
  26 O26           -4.3365   -15.3938    -0.4565 O.2     
  27 C27           -0.9550   -17.6355    -1.4152 C.3     
  28 C28           -5.7340   -13.5126     0.4366 C.3     
  29 C29           -5.7622   -10.6896     0.9529 C.3     
  30 C30           -1.2737     3.4542     2.0773 C.3     
  31 H31            1.8772    -0.0250     0.4663 H       
  32 H32            1.9079    -2.4411     0.0224 H       
  33 H33           -2.1784    -2.7322     1.2547 H       
  34 H34           -2.2193    -0.3189     1.7136 H       
  35 H35           -1.5916    -4.6942     1.6649 H       
  36 H36           -2.1179    -4.3934    -0.0086 H       
  37 H37           -0.8303    -6.3713    -0.7691 H       
  38 H38           -0.3039    -6.6722     0.9044 H       
  39 H39           -2.6685    -6.9478     1.5985 H       
  40 H40           -3.1948    -6.6470    -0.0750 H       
  41 H41           -1.9071    -8.6249    -0.8355 H       
  42 H42           -1.3808    -8.9257     0.8380 H       
  43 H43           -1.2787   -13.0039    -0.8737 H       
  44 H44           -1.3226   -10.5849    -0.4363 H       
  45 H45           -1.6409   -14.9899    -1.8509 H       
  46 H46           -1.2935   -15.3002    -0.1330 H       
  47 H47           -2.7485   -17.3446    -0.2579 H       
  48 H48           -2.7459   -16.6883    -3.2389 H       
  49 H49           -3.3956   -18.1734    -2.5035 H       
  50 H50           -4.1578   -16.6024    -2.1584 H       
  51 H51           -0.2924   -17.5020    -0.5601 H       
  52 H52           -1.1383   -18.6988    -1.5702 H       
  53 H53           -0.4886   -17.2137    -2.3055 H       
  54 H54           -6.2783   -13.6344    -0.4999 H       
  55 H55           -5.4508   -14.4920     0.8223 H       
  56 H56           -6.3695   -13.0060     1.1629 H       
  57 H57           -6.3688   -10.3571     0.1105 H       
  58 H58           -6.3291   -11.4046     1.5491 H       
  59 H59           -5.4964    -9.8316     1.5703 H       
  60 H60           -0.5108     3.6697     2.8254 H       
  61 H61           -1.0289     3.9710     1.1494 H       
  62 H62           -2.2436     3.7961     2.4386 H       
@<TRIPOS>BOND
   1    1    2 1
   2    1    8 2
   3    1    9 1
   4    2    3 ar
   5    2    7 ar
   6    3    4 ar
   7    3   31 1
   8    4    5 ar
   9    4   32 1
  10    5    6 ar
  11    5   10 1
  12    6    7 ar
  13    6   33 1
  14    7   34 1
  15    9   30 1
  16   10   11 1
  17   11   12 1
  18   11   35 1
  19   11   36 1
  20   12   13 1
  21   12   37 1
  22   12   38 1
  23   13   14 1
  24   13   39 1
  25   13   40 1
  26   14   15 1
  27   14   41 1
  28   14   42 1
  29   15   16 1
  30   16   17 ar
  31   16   21 ar
  32   17   18 ar
  33   17   29 1
  34   18   19 ar
  35   18   28 1
  36   19   20 ar
  37   19   22 1
  38   20   21 ar
  39   20   43 1
  40   21   44 1
  41   22   23 1
  42   22   26 2
  43   23   24 1
  44   23   45 1
  45   23   46 1
  46   24   25 1
  47   24   27 1
  48   24   47 1
  49   25   48 1
  50   25   49 1
  51   25   50 1
  52   27   51 1
  53   27   52 1
  54   27   53 1
  55   28   54 1
  56   28   55 1
  57   28   56 1
  58   29   57 1
  59   29   58 1
  60   29   59 1
  61   30   60 1
  62   30   61 1
  63   30   62 1

#	End of record

