#	Name: ASD01912450
#	Creating user name:	WinNT
#	Creation time:	15. 06. 2019 19:59

#	Modifying user name:	WinNT
#	Modification time:	15. 06. 2019 19:59

#	Program:	/corina/corina34_cracker 3.40 0067  02.08.2006

@<TRIPOS>MOLECULE
ASD01912450
  36   37    0    0    0
SMALL
NO_CHARGES


@<TRIPOS>ATOM
   1 C1            -0.0169     1.3928     0.0241 C.ar    
   2 C2             0.0017    -0.0033     0.0131 C.ar    
   3 C3             1.2379    -0.6670    -0.0097 C.ar    
   4 C4             2.3897     0.0931    -0.0202 C.ar    
   5 C5             2.2891     1.4815    -0.0081 C.ar    
   6 N6             1.1074     2.0787     0.0133 N.ar    
   7 C7            -1.2222    -0.7467     0.0252 C.1     
   8 C8            -2.2256    -1.3561     0.0352 C.1     
   9 C9            -3.4495    -2.0994     0.0474 C.ar    
  10 C10           -3.4226    -3.4965     0.0363 C.ar    
  11 C11           -4.6054    -4.2057     0.0486 C.ar    
  12 C12           -5.8168    -3.5371     0.0720 C.ar    
  13 C13           -5.8513    -2.1538     0.0831 C.ar    
  14 C14           -4.6765    -1.4312     0.0764 C.ar    
  15 N15            3.4482     2.2537    -0.0187 N.am    
  16 C16            3.3632     3.5955    -0.1124 C.2     
  17 C17            4.6078     4.4386    -0.0066 C.3     
  18 O18            2.2851     4.1244    -0.2819 O.2     
  19 C19            4.2362     5.9163    -0.1451 C.3     
  20 C20            5.4998     6.7722    -0.0377 C.3     
  21 H21           -0.9621     1.9152     0.0370 H       
  22 H22            1.2868    -1.7458    -0.0183 H       
  23 H23            3.3585    -0.3839    -0.0374 H       
  24 H24           -2.4779    -4.0196     0.0177 H       
  25 H25           -4.5862    -5.2855     0.0397 H       
  26 H26           -6.7398    -4.0977     0.0812 H       
  27 H27           -6.8004    -1.6388     0.1014 H       
  28 H28           -4.7050    -0.3516     0.0851 H       
  29 H29            4.3167     1.8257     0.0414 H       
  30 H30            5.0786     4.2716     0.9622 H       
  31 H31            5.3021     4.1626    -0.8003 H       
  32 H32            3.7655     6.0833    -1.1140 H       
  33 H33            3.5419     6.1922     0.6485 H       
  34 H34            5.9705     6.6052     0.9311 H       
  35 H35            6.1941     6.4963    -0.8314 H       
  36 H36            5.2350     7.8249    -0.1364 H       
@<TRIPOS>BOND
   1    1    2 ar
   2    1    6 ar
   3    1   21 1
   4    2    3 ar
   5    2    7 1
   6    3    4 ar
   7    3   22 1
   8    4    5 ar
   9    4   23 1
  10    5    6 ar
  11    5   15 1
  12    7    8 3
  13    8    9 1
  14    9   10 ar
  15    9   14 ar
  16   10   11 ar
  17   10   24 1
  18   11   12 ar
  19   11   25 1
  20   12   13 ar
  21   12   26 1
  22   13   14 ar
  23   13   27 1
  24   14   28 1
  25   15   16 am
  26   15   29 1
  27   16   17 1
  28   16   18 2
  29   17   19 1
  30   17   30 1
  31   17   31 1
  32   19   20 1
  33   19   32 1
  34   19   33 1
  35   20   34 1
  36   20   35 1
  37   20   36 1

#	End of record

