#	Name: ASD04910398
#	Creating user name:	WinNT
#	Creation time:	15. 06. 2019 20:55

#	Modifying user name:	WinNT
#	Modification time:	15. 06. 2019 20:55

#	Program:	/corina/corina34_cracker 3.40 0067  02.08.2006

@<TRIPOS>MOLECULE
ASD04910398
  58   61    0    0    0
SMALL
NO_CHARGES


@<TRIPOS>ATOM
   1 C1             3.3508    -0.5916     6.1236 C.2     
   2 C2             3.1137    -1.8332     5.5245 C.2     
   3 C3             3.7900    -1.8664     4.3526 C.2     
   4 N4             4.4333    -0.6853     4.2153 N.pl3   
   5 N5             4.1414     0.0972     5.3400 N.2     
   6 C6             2.2568    -2.9389     6.0852 C.3     
   7 F7             1.7222    -2.5371     7.3140 F       
   8 F8             1.2162    -3.2203     5.1935 F       
   9 F9             3.0367    -4.0858     6.2686 F       
  10 C10            5.2489    -0.3097     3.1371 C.ar    
  11 C11            5.8512     0.9413     3.1253 C.ar    
  12 C12            5.4579    -1.1912     2.0849 C.ar    
  13 C13            6.2602    -0.8220     1.0240 C.ar    
  14 C14            6.8584     0.4316     1.0092 C.ar    
  15 C15            6.6536     1.3112     2.0648 C.ar    
  16 N16            7.6710     0.8059    -0.0650 N.pl3   
  17 C17            8.2504     2.1506    -0.1115 C.3     
  18 C18            9.5602     2.1593     0.6337 C.ar    
  19 C19            8.4897     2.5528    -1.5682 C.3     
  20 N20           10.5711     1.4449     0.1772 N.ar    
  21 C21           11.7365     1.4179     0.7897 C.ar    
  22 C22           11.9415     2.1541     1.9577 C.ar    
  23 C23           10.8867     2.9225     2.4668 C.ar    
  24 C24            9.6845     2.9208     1.7822 C.ar    
  25 C25           13.2485     2.1232     2.6454 C.2     
  26 O26           13.4156     2.7679     3.6613 O.2     
  27 O27           14.2549     1.3799     2.1461 O.3     
  28 C28           15.5111     1.3970     2.8741 C.3     
  29 C29            7.1749     2.4608    -2.3453 C.3     
  30 C30            7.4142     2.8629    -3.8019 C.3     
  31 C31            7.9386     4.2993    -3.8549 C.3     
  32 C32            9.2534     4.3913    -3.0779 C.3     
  33 C33            9.0140     3.9891    -1.6212 C.3     
  34 H34            2.9473    -0.2570     7.0679 H       
  35 H35            3.8122    -2.6889     3.6530 H       
  36 H36            5.6916     1.6251     3.9458 H       
  37 H37            4.9931    -2.1659     2.0967 H       
  38 H38            6.4231    -1.5079     0.2058 H       
  39 H39            7.1182     2.2860     2.0534 H       
  40 H40            7.8512     0.1752    -0.7796 H       
  41 H41            7.5636     2.8584     0.3527 H       
  42 H42            9.2233     1.8815    -2.0146 H       
  43 H43           12.5403     0.8208     0.3852 H       
  44 H44           11.0100     3.5044     3.3682 H       
  45 H45            8.8492     3.5014     2.1450 H       
  46 H46           15.8930     2.4171     2.9158 H       
  47 H47           15.3491     1.0280     3.8869 H       
  48 H48           16.2341     0.7588     2.3662 H       
  49 H49            6.8014     1.4375    -2.3075 H       
  50 H50            6.4413     3.1321    -1.8988 H       
  51 H51            8.1479     2.1916    -4.2483 H       
  52 H52            6.4776     2.7974    -4.3555 H       
  53 H53            8.1091     4.5858    -4.8927 H       
  54 H54            7.2050     4.9706    -3.4085 H       
  55 H55            9.9870     3.7200    -3.5243 H       
  56 H56            9.6269     5.4146    -3.1156 H       
  57 H57            8.2804     4.6604    -1.1748 H       
  58 H58            9.9507     4.0546    -1.0676 H       
@<TRIPOS>BOND
   1    1    2 1
   2    1    5 2
   3    1   34 1
   4    2    3 2
   5    2    6 1
   6    3    4 1
   7    3   35 1
   8    4    5 1
   9    4   10 1
  10    6    7 1
  11    6    8 1
  12    6    9 1
  13   10   11 ar
  14   10   12 ar
  15   11   15 ar
  16   11   36 1
  17   12   13 ar
  18   12   37 1
  19   13   14 ar
  20   13   38 1
  21   14   15 ar
  22   14   16 1
  23   15   39 1
  24   16   17 1
  25   16   40 1
  26   17   18 1
  27   17   19 1
  28   17   41 1
  29   18   20 ar
  30   18   24 ar
  31   19   29 1
  32   19   33 1
  33   19   42 1
  34   20   21 ar
  35   21   22 ar
  36   21   43 1
  37   22   23 ar
  38   22   25 1
  39   23   24 ar
  40   23   44 1
  41   24   45 1
  42   25   26 2
  43   25   27 1
  44   27   28 1
  45   28   46 1
  46   28   47 1
  47   28   48 1
  48   29   30 1
  49   29   49 1
  50   29   50 1
  51   30   31 1
  52   30   51 1
  53   30   52 1
  54   31   32 1
  55   31   53 1
  56   31   54 1
  57   32   33 1
  58   32   55 1
  59   32   56 1
  60   33   57 1
  61   33   58 1

#	End of record

