#	Name: ASD04840019
#	Creating user name:	WinNT
#	Creation time:	15. 06. 2019 20:52

#	Modifying user name:	WinNT
#	Modification time:	15. 06. 2019 20:52

#	Program:	/corina/corina34_cracker 3.40 0067  02.08.2006

@<TRIPOS>MOLECULE
ASD04840019
  58   62    0    0    0
SMALL
NO_CHARGES


@<TRIPOS>ATOM
   1 O1             2.4355    -2.7435    -3.2552 O.3     
   2 C2             1.6495    -2.7475    -2.1612 C.2     
   3 O3             1.9891    -2.1376    -1.1671 O.2     
   4 C4             0.3742    -3.4937    -2.1704 C.ar    
   5 C5            -0.4411    -3.4983    -1.0369 C.ar    
   6 C6            -1.6386    -4.1992    -1.0445 C.ar    
   7 C7            -2.0300    -4.8976    -2.1778 C.ar    
   8 C8            -1.2197    -4.8968    -3.3149 C.ar    
   9 C9            -0.0190    -4.1891    -3.3125 C.ar    
  10 C10           -1.6371    -5.6413    -4.5211 C.2     
  11 O11           -2.6372    -6.3300    -4.4939 O.2     
  12 O12           -0.9084    -5.5561    -5.6508 O.3     
  13 N13           -2.4523    -4.2021     0.0922 N.pl3   
  14 C14           -3.6873    -4.8350     0.0601 C.ar    
  15 C15           -4.8643    -4.1030    -0.0252 C.ar    
  16 C16           -6.0813    -4.7639    -0.0557 C.ar    
  17 C17           -7.3524    -3.9597    -0.1490 C.3     
  18 O18           -7.0304    -2.5776    -0.3165 O.3     
  19 C19           -8.0653    -1.7243    -0.5184 C.ar    
  20 C20           -9.3716    -2.1830    -0.4410 C.ar    
  21 C21          -10.4242    -1.3130    -0.6463 C.ar    
  22 C22          -10.1855     0.0214    -0.9311 C.ar    
  23 C23           -8.8938     0.4949    -1.0120 C.ar    
  24 C24           -7.8192    -0.3729    -0.8008 C.ar    
  25 C25           -6.4351     0.1266    -0.8858 C.2     
  26 O26           -5.5031    -0.6483    -0.7993 O.2     
  27 O27           -6.2032     1.4427    -1.0594 O.3     
  28 N28           -6.1545    -6.0765    -0.0058 N.ar    
  29 C29           -5.0648    -6.8355     0.0765 C.ar    
  30 C30           -3.7847    -6.2434     0.1073 C.ar    
  31 C31           -2.6310    -7.0508     0.1937 C.ar    
  32 C32           -2.7169    -8.3968     0.2487 C.ar    
  33 C33           -3.9683    -9.0538     0.2220 C.ar    
  34 C34           -5.1586    -8.2980     0.1311 C.ar    
  35 C35           -6.3935    -8.9499     0.1040 C.ar    
  36 C36           -6.4398   -10.3132     0.1657 C.ar    
  37 C37           -5.2710   -11.0606     0.2551 C.ar    
  38 C38           -4.0503   -10.4528     0.2790 C.ar    
  39 H39            3.2600    -2.2413    -3.2015 H       
  40 H40           -0.1392    -2.9560    -0.1531 H       
  41 H41           -2.9624    -5.4427    -2.1802 H       
  42 H42            0.6095    -4.1865    -4.1908 H       
  43 H43           -1.1777    -6.1180    -6.3903 H       
  44 H44           -2.1539    -3.7618     0.9034 H       
  45 H45           -4.8309    -3.0243    -0.0671 H       
  46 H46           -7.9375    -4.3025    -1.0024 H       
  47 H47           -7.9323    -4.0895     0.7648 H       
  48 H48           -9.5661    -3.2221    -0.2201 H       
  49 H49          -11.4398    -1.6753    -0.5848 H       
  50 H50          -11.0154     0.6938    -1.0908 H       
  51 H51           -8.7125     1.5361    -1.2346 H       
  52 H52           -5.2811     1.7330    -1.0345 H       
  53 H53           -1.6583    -6.5820     0.2160 H       
  54 H54           -1.8122    -8.9830     0.3140 H       
  55 H55           -7.3074    -8.3785     0.0350 H       
  56 H56           -7.3951   -10.8165     0.1450 H       
  57 H57           -5.3303   -12.1379     0.3032 H       
  58 H58           -3.1506   -11.0462     0.3487 H       
@<TRIPOS>BOND
   1    1    2 1
   2    1   39 1
   3    2    3 2
   4    2    4 1
   5    4    5 ar
   6    4    9 ar
   7    5    6 ar
   8    5   40 1
   9    6    7 ar
  10    6   13 1
  11    7    8 ar
  12    7   41 1
  13    8    9 ar
  14    8   10 1
  15    9   42 1
  16   10   11 2
  17   10   12 1
  18   12   43 1
  19   13   14 1
  20   13   44 1
  21   14   15 ar
  22   14   30 ar
  23   15   16 ar
  24   15   45 1
  25   16   17 1
  26   16   28 ar
  27   17   18 1
  28   17   46 1
  29   17   47 1
  30   18   19 1
  31   19   20 ar
  32   19   24 ar
  33   20   21 ar
  34   20   48 1
  35   21   22 ar
  36   21   49 1
  37   22   23 ar
  38   22   50 1
  39   23   24 ar
  40   23   51 1
  41   24   25 1
  42   25   26 2
  43   25   27 1
  44   27   52 1
  45   28   29 ar
  46   29   30 ar
  47   29   34 ar
  48   30   31 ar
  49   31   32 ar
  50   31   53 1
  51   32   33 ar
  52   32   54 1
  53   33   34 ar
  54   33   38 ar
  55   34   35 ar
  56   35   36 ar
  57   35   55 1
  58   36   37 ar
  59   36   56 1
  60   37   38 ar
  61   37   57 1
  62   38   58 1

#	End of record

