#	Name: ASD03240478
#	Creating user name:	WinNT
#	Creation time:	15. 06. 2019 20:35

#	Modifying user name:	WinNT
#	Modification time:	15. 06. 2019 20:35

#	Program:	/corina/corina34_cracker 3.40 0067  02.08.2006

@<TRIPOS>MOLECULE
ASD03240478
  47   50    0    0    0
SMALL
NO_CHARGES


@<TRIPOS>ATOM
   1 C1             0.0330     1.4783    -0.0440 C.ar    
   2 C2            -2.3542     2.4341     2.2812 C.ar    
   3 C3            -1.4714     2.8758     1.3124 C.ar    
   4 C4            -1.3320     2.1136     0.0199 C.3     
   5 C5            -2.4857     3.1285     3.4668 C.ar    
   6 C6            -1.7272     4.2760     3.6868 C.ar    
   7 C7            -0.8399     4.7168     2.7075 C.ar    
   8 C8            -0.7162     4.0149     1.5255 C.ar    
   9 C9            -1.8648     5.0272     4.9600 C.2     
  10 C10           -1.1876     6.1603     5.3048 C.2     
  11 N11           -1.6003     6.5236     6.5359 N.pl3   
  12 N12           -2.5562     5.5963     6.9682 N.2     
  13 C13           -2.7227     4.7032     6.0291 C.2     
  14 C14            0.1584     0.1028     0.0151 C.ar    
  15 C15            1.1589     2.2709    -0.1675 C.ar    
  16 C16            2.4107     1.6885    -0.2324 C.ar    
  17 C17            2.5368     0.3120    -0.1733 C.ar    
  18 C18            1.4097    -0.4807    -0.0492 C.ar    
  19 C19           -1.5036     3.0733    -1.1593 C.3     
  20 C20           -1.4866     2.2813    -2.4682 C.3     
  21 N21           -1.6513     3.2028    -3.6003 N.3     
  22 Cl22           4.1087    -0.4203    -0.2553 Cl      
  23 C23           -1.4036     2.5156    -4.8815 C.3     
  24 C24           -2.6061     3.2761    -5.4581 C.3     
  25 C25           -3.0685     3.3076    -3.9946 C.3     
  26 H26           -2.9450     1.5468     2.1078 H       
  27 H27           -2.0964     1.3380    -0.0288 H       
  28 H28           -3.1756     2.7829     4.2225 H       
  29 H29           -0.2496     5.6058     2.8731 H       
  30 H30           -0.0283     4.3555     0.7658 H       
  31 H31           -0.4537     6.6734     4.7010 H       
  32 H32           -1.2886     7.2941     7.0359 H       
  33 H33           -3.3956     3.8594     6.0686 H       
  34 H34           -0.7215    -0.5159     0.1120 H       
  35 H35            1.0603     3.3454    -0.2137 H       
  36 H36            3.2901     2.3078    -0.3296 H       
  37 H37            1.5076    -1.5553    -0.0026 H       
  38 H38           -2.4539     3.5987    -1.0648 H       
  39 H39           -0.6875     3.7960    -1.1612 H       
  40 H40           -0.5363     1.7559    -2.5627 H       
  41 H41           -2.3026     1.5587    -2.4662 H       
  42 H42           -0.4550     2.7882    -5.3441 H       
  43 H43           -1.5548     1.4373    -4.8322 H       
  44 H44           -2.3596     4.2549    -5.8694 H       
  45 H45           -3.2395     2.6784    -6.1135 H       
  46 H46           -3.6641     2.4406    -3.7086 H       
  47 H47           -3.5310     4.2514    -3.7056 H       
@<TRIPOS>BOND
   1    1   14 ar
   2    1   15 ar
   3    1    4 1
   4    2    3 ar
   5    2    5 ar
   6    2   26 1
   7    3    4 1
   8    3    8 ar
   9    4   19 1
  10    4   27 1
  11    5    6 ar
  12    5   28 1
  13    6    7 ar
  14    6    9 1
  15    7    8 ar
  16    7   29 1
  17    8   30 1
  18    9   10 2
  19    9   13 1
  20   10   11 1
  21   10   31 1
  22   11   12 1
  23   11   32 1
  24   12   13 2
  25   13   33 1
  26   14   18 ar
  27   14   34 1
  28   15   16 ar
  29   15   35 1
  30   16   17 ar
  31   16   36 1
  32   17   18 ar
  33   17   22 1
  34   18   37 1
  35   19   20 1
  36   19   38 1
  37   19   39 1
  38   20   21 1
  39   20   40 1
  40   20   41 1
  41   21   23 1
  42   21   25 1
  43   23   24 1
  44   23   42 1
  45   23   43 1
  46   24   25 1
  47   24   44 1
  48   24   45 1
  49   25   46 1
  50   25   47 1

#	End of record

