#	Name: ASD01908013
#	Creating user name:	WinNT
#	Creation time:	15. 06. 2019 19:54

#	Modifying user name:	WinNT
#	Modification time:	15. 06. 2019 19:54

#	Program:	/corina/corina34_cracker 3.40 0067  02.08.2006

@<TRIPOS>MOLECULE
ASD01908013
  36   38    0    0    0
SMALL
NO_CHARGES


@<TRIPOS>ATOM
   1 S1            -0.0211     1.7049     0.0114 S.3     
   2 C2             0.0021    -0.0041     0.0020 C.2     
   3 N3             1.2205    -0.4385    -0.0119 N.2     
   4 C4             2.1838     0.4746    -0.0162 C.2     
   5 C5             1.7399     1.7436    -0.0052 C.2     
   6 O6            -1.1002    -0.7926     0.0083 O.3     
   7 N7             5.8114     0.2843    -0.0516 N.pl3   
   8 N8             5.4711    -1.0739    -0.0563 N.2     
   9 C9             4.1681    -1.1754    -0.0445 C.2     
  10 C10            3.6275     0.1247    -0.0319 C.2     
  11 C11            4.6696     1.0043    -0.0367 C.2     
  12 C12            3.3810    -2.4605    -0.0453 C.3     
  13 C13            7.1711     0.8295    -0.0559 C.3     
  14 C14            7.9467     0.2542     1.1011 C.ar    
  15 C15            8.6635    -0.9167     0.9373 C.ar    
  16 C16            9.3753    -1.4461     1.9963 C.ar    
  17 C17            9.3704    -0.8019     3.2250 C.ar    
  18 C18            8.6503     0.3728     3.3868 C.ar    
  19 C19            7.9447     0.9011     2.3231 C.ar    
  20 O20           10.0694    -1.3210     4.2684 O.3     
  21 C21           10.0189    -0.6043     5.5037 C.3     
  22 H22            2.3552     2.6312    -0.0066 H       
  23 H23           -1.9340    -0.3030     0.0185 H       
  24 H24            4.5949     2.0817    -0.0292 H       
  25 H25            3.2006    -2.7767     0.9821 H       
  26 H26            2.4276    -2.3024    -0.5495 H       
  27 H27            3.9455    -3.2320    -0.5691 H       
  28 H28            7.6652     0.5664    -0.9912 H       
  29 H29            7.1278     1.9145     0.0394 H       
  30 H30            8.6668    -1.4180    -0.0193 H       
  31 H31            9.9348    -2.3609     1.8679 H       
  32 H32            8.6448     0.8761     4.3423 H       
  33 H33            7.3878     1.8181     2.4472 H       
  34 H34           10.6178    -1.1252     6.2507 H       
  35 H35           10.4146     0.4007     5.3571 H       
  36 H36            8.9857    -0.5418     5.8455 H       
@<TRIPOS>BOND
   1    1    2 1
   2    1    5 1
   3    2    3 2
   4    2    6 1
   5    3    4 1
   6    4    5 2
   7    4   10 1
   8    5   22 1
   9    6   23 1
  10    7    8 1
  11    7   11 1
  12    7   13 1
  13    8    9 2
  14    9   10 1
  15    9   12 1
  16   10   11 2
  17   11   24 1
  18   12   25 1
  19   12   26 1
  20   12   27 1
  21   13   14 1
  22   13   28 1
  23   13   29 1
  24   14   15 ar
  25   14   19 ar
  26   15   16 ar
  27   15   30 1
  28   16   17 ar
  29   16   31 1
  30   17   18 ar
  31   17   20 1
  32   18   19 ar
  33   18   32 1
  34   19   33 1
  35   20   21 1
  36   21   34 1
  37   21   35 1
  38   21   36 1

#	End of record

