#	Name: ASD05130036
#	Creating user name:	WinNT
#	Creation time:	15. 06. 2019 20:56

#	Modifying user name:	WinNT
#	Modification time:	15. 06. 2019 20:56

#	Program:	/corina/corina34_cracker 3.40 0067  02.08.2006

@<TRIPOS>MOLECULE
ASD05130036
  55   58    0    0    0
SMALL
NO_CHARGES


@<TRIPOS>ATOM
   1 N1            -0.1219     1.2743     0.5827 N.am    
   2 C2            -0.1487    -0.0732     0.5739 C.2     
   3 O3             0.7993    -0.7030     1.0018 O.2     
   4 N4            -1.2264    -0.7226     0.0909 N.am    
   5 C5            -1.2078    -2.1181    -0.0286 C.ar    
   6 C6            -2.4018    -2.8332    -0.0241 C.ar    
   7 C7            -2.3869    -4.2118    -0.1420 C.ar    
   8 C8            -1.1878    -4.8850    -0.2647 C.ar    
   9 C9             0.0130    -4.1760    -0.2700 C.ar    
  10 C10           -0.0013    -2.7865    -0.1570 C.ar    
  11 F11           -3.5782    -2.1798     0.0960 F       
  12 N12            2.9108    -6.4740     0.5327 N.am    
  13 C13            1.7401    -5.8173     0.6508 C.2     
  14 C14            1.3007    -4.8973    -0.4006 C.2     
  15 C15            2.0868    -4.7085    -1.5045 C.2     
  16 C16            3.3118    -5.4096    -1.6054 C.ar    
  17 C17            4.1477    -5.2464    -2.7170 C.ar    
  18 N18            5.2832    -5.9053    -2.7950 N.ar    
  19 C19            5.6841    -6.7406    -1.8424 C.ar    
  20 C20            4.9165    -6.9612    -0.7075 C.ar    
  21 C21            3.7070    -6.2897    -0.5741 C.ar    
  22 O22            1.0445    -5.9895     1.6360 O.2     
  23 N23            6.8932    -7.4053    -1.9854 N.pl3   
  24 C24            7.3488    -8.3294    -0.9439 C.3     
  25 C25            3.3419    -7.3874     1.5939 C.3     
  26 C26            2.8147    -8.7937     1.3017 C.3     
  27 C27            0.9468     1.9490     1.1840 C.ar    
  28 C28            1.5502     1.4225     2.3155 C.ar    
  29 C29            2.6154     2.0988     2.9109 C.ar    
  30 C30            3.0664     3.3016     2.3626 C.ar    
  31 C31            2.4587     3.8168     1.2362 C.ar    
  32 C32            1.4065     3.1437     0.6434 C.ar    
  33 C33            3.2438     1.5618     4.0802 C.1     
  34 N34            3.7423     1.1358     5.0078 N.1     
  35 H35           -0.8412     1.7764     0.1688 H       
  36 H36           -2.0149    -0.2236    -0.1740 H       
  37 H37           -3.3158    -4.7627    -0.1378 H       
  38 H38           -1.1797    -5.9610    -0.3562 H       
  39 H39            0.9261    -2.2331    -0.1649 H       
  40 H40            1.7764    -4.0337    -2.2884 H       
  41 H41            3.8585    -4.5771    -3.5137 H       
  42 H42            5.2534    -7.6432     0.0591 H       
  43 H43            7.4370    -7.2583    -2.7751 H       
  44 H44            7.4538    -7.7915    -0.0016 H       
  45 H45            6.6200    -9.1311    -0.8253 H       
  46 H46            8.3116    -8.7529    -1.2297 H       
  47 H47            4.4309    -7.4088     1.6347 H       
  48 H48            2.9491    -7.0437     2.5508 H       
  49 H49            3.1354    -9.4732     2.0913 H       
  50 H50            1.7257    -8.7723     1.2609 H       
  51 H51            3.2074    -9.1374     0.3448 H       
  52 H52            1.1967     0.4922     2.7350 H       
  53 H53            3.8905     3.8285     2.8205 H       
  54 H54            2.8085     4.7472     0.8138 H       
  55 H55            0.9378     3.5497    -0.2408 H       
@<TRIPOS>BOND
   1    1    2 am
   2    1   27 1
   3    1   35 1
   4    2    3 2
   5    2    4 am
   6    4    5 1
   7    4   36 1
   8    5    6 ar
   9    5   10 ar
  10    6    7 ar
  11    6   11 1
  12    7    8 ar
  13    7   37 1
  14    8    9 ar
  15    8   38 1
  16    9   10 ar
  17    9   14 1
  18   10   39 1
  19   12   13 am
  20   12   21 1
  21   12   25 1
  22   13   14 1
  23   13   22 2
  24   14   15 2
  25   15   16 1
  26   15   40 1
  27   16   17 ar
  28   16   21 ar
  29   17   18 ar
  30   17   41 1
  31   18   19 ar
  32   19   20 ar
  33   19   23 1
  34   20   21 ar
  35   20   42 1
  36   23   24 1
  37   23   43 1
  38   24   44 1
  39   24   45 1
  40   24   46 1
  41   25   26 1
  42   25   47 1
  43   25   48 1
  44   26   49 1
  45   26   50 1
  46   26   51 1
  47   27   28 ar
  48   27   32 ar
  49   28   29 ar
  50   28   52 1
  51   29   30 ar
  52   29   33 1
  53   30   31 ar
  54   30   53 1
  55   31   32 ar
  56   31   54 1
  57   32   55 1
  58   33   34 3

#	End of record

