#	Name: ASD00069157
#	Creating user name:	WinNT
#	Creation time:	15. 06. 2019 18:29

#	Modifying user name:	WinNT
#	Modification time:	15. 06. 2019 18:29

#	Program:	/corina/corina34_cracker 3.40 0067  02.08.2006

@<TRIPOS>MOLECULE
ASD00069157
  50   53    0    0    0
SMALL
NO_CHARGES


@<TRIPOS>ATOM
   1 C1            -0.0972     1.1996    -0.5382 C.2     
   2 N2             0.0007    -0.0057    -0.0191 N.2     
   3 C3             1.2438    -0.4624    -0.2077 C.2     
   4 C4             1.9517     0.4983    -0.8725 C.2     
   5 N5             1.1111     1.5390    -1.0791 N.pl3   
   6 C6            -1.3078     2.0394    -0.5412 C.2     
   7 O7            -1.2815     3.1425    -1.0532 O.2     
   8 N8            -2.4444     1.5854     0.0233 N.am    
   9 N9             1.8798    -3.8105     1.0496 N.pl3   
  10 N10            3.1579    -3.4404     0.6137 N.2     
  11 C11            3.0946    -2.2306     0.1230 C.2     
  12 C12            1.7637    -1.7839     0.2297 C.2     
  13 C13            1.0384    -2.7840     0.8066 C.2     
  14 C14           -3.5595     2.4263     0.1263 C.ar    
  15 C15           -4.8455     1.8980     0.0210 C.ar    
  16 C16           -5.9467     2.7373     0.1245 C.ar    
  17 C17           -5.7650     4.0939     0.3317 C.ar    
  18 C18           -4.4890     4.6162     0.4354 C.ar    
  19 C19           -3.3876     3.7864     0.3391 C.ar    
  20 F20           -7.1949     2.2304     0.0227 F       
  21 N21           -5.0259     0.5249    -0.1891 N.3     
  22 C22           -5.7969    -0.0781     0.9056 C.3     
  23 C23           -5.8497    -1.5961     0.7183 C.3     
  24 C24           -6.5035    -1.9169    -0.6286 C.3     
  25 C25           -5.7091    -1.2373    -1.7474 C.3     
  26 C26           -5.6605     0.2702    -1.4887 C.3     
  27 C27           -6.5042    -3.4309    -0.8489 C.3     
  28 N28           -7.2369    -3.7459    -2.0826 N.3     
  29 H29            2.9866     0.4389    -1.1756 H       
  30 H30            1.3263     2.3714    -1.5283 H       
  31 H31           -2.4900     0.6762     0.3582 H       
  32 H32            1.6399    -4.6596     1.4527 H       
  33 H33            3.9199    -1.6709    -0.2919 H       
  34 H34           -0.0182    -2.7592     1.0286 H       
  35 H35           -6.6221     4.7460     0.4121 H       
  36 H36           -4.3524     5.6754     0.5967 H       
  37 H37           -2.3927     4.1976     0.4256 H       
  38 H38           -5.3190     0.1540     1.8573 H       
  39 H39           -6.8101     0.3238     0.9006 H       
  40 H40           -4.8376    -2.0005     0.7370 H       
  41 H41           -6.4352    -2.0418     1.5224 H       
  42 H42           -7.5287    -1.5467    -0.6332 H       
  43 H43           -4.6949    -1.6360    -1.7675 H       
  44 H44           -6.1943    -1.4267    -2.7049 H       
  45 H45           -6.6743     0.6706    -1.4825 H       
  46 H46           -5.0834     0.7554    -2.2759 H       
  47 H47           -5.4772    -3.7859    -0.9356 H       
  48 H48           -6.9879    -3.9209    -0.0039 H       
  49 H49           -6.8466    -3.2519    -2.8711 H       
  50 H50           -7.2516    -4.7407    -2.2504 H       
@<TRIPOS>BOND
   1    1    2 2
   2    1    5 1
   3    1    6 1
   4    2    3 1
   5    3    4 2
   6    3   12 1
   7    4    5 1
   8    4   29 1
   9    5   30 1
  10    6    7 2
  11    6    8 am
  12    8   14 1
  13    8   31 1
  14    9   10 1
  15    9   13 1
  16    9   32 1
  17   10   11 2
  18   11   12 1
  19   11   33 1
  20   12   13 2
  21   13   34 1
  22   14   15 ar
  23   14   19 ar
  24   15   16 ar
  25   15   21 1
  26   16   17 ar
  27   16   20 1
  28   17   18 ar
  29   17   35 1
  30   18   19 ar
  31   18   36 1
  32   19   37 1
  33   21   22 1
  34   21   26 1
  35   22   23 1
  36   22   38 1
  37   22   39 1
  38   23   24 1
  39   23   40 1
  40   23   41 1
  41   24   25 1
  42   24   27 1
  43   24   42 1
  44   25   26 1
  45   25   43 1
  46   25   44 1
  47   26   45 1
  48   26   46 1
  49   27   28 1
  50   27   47 1
  51   27   48 1
  52   28   49 1
  53   28   50 1

#	End of record

