#	Name: ASD01915594
#	Creating user name:	WinNT
#	Creation time:	15. 06. 2019 20:05

#	Modifying user name:	WinNT
#	Modification time:	15. 06. 2019 20:05

#	Program:	/corina/corina34_cracker 3.40 0067  02.08.2006

@<TRIPOS>MOLECULE
ASD01915594
  41   44    0    0    0
SMALL
NO_CHARGES


@<TRIPOS>ATOM
   1 C1            -0.0043     1.4632     0.2182 C.2     
   2 N2             0.0616     0.1101    -0.0288 N.pl3   
   3 C3            -1.1508    -0.6740    -0.2930 C.3     
   4 C4            -2.3298    -0.0463     0.4487 C.3     
   5 N5            -2.4043     1.3988     0.2637 N.am    
   6 C6            -1.2917     2.1721     0.2684 C.2     
   7 C7             1.2784     1.9003     0.3949 C.2     
   8 C8             2.0746     0.7559     0.2530 C.2     
   9 N9             1.2814    -0.2613     0.0092 N.2     
  10 C10            3.5768     0.7024     0.3606 C.3     
  11 O11            4.0817     2.0112     0.6331 O.3     
  12 C12            5.4286     2.1386     0.7608 C.ar    
  13 O13           -1.3543     3.3860     0.3126 O.2     
  14 C14            5.9871     3.3806     1.0257 C.ar    
  15 C15            6.2471     1.0259     0.6321 C.ar    
  16 C16            7.6161     1.1580     0.7623 C.ar    
  17 C17            8.1706     2.3980     1.0206 C.ar    
  18 C18            7.3566     3.5075     1.1550 C.ar    
  19 C19           -3.6481     1.9976     0.0778 C.ar    
  20 C20           -4.8080     1.2608     0.3062 C.ar    
  21 C21           -6.0407     1.8622     0.1200 C.ar    
  22 C22           -6.0779     3.1862    -0.2902 C.ar    
  23 C23           -4.8803     3.8665    -0.5010 C.ar    
  24 N24           -3.7143     3.2594    -0.3078 N.ar    
  25 C25           -4.9063     5.2340    -0.9252 C.1     
  26 N26           -4.9270     6.3188    -1.2617 N.1     
  27 H27           -1.3552    -0.6782    -1.3637 H       
  28 H28           -1.0055    -1.6969     0.0542 H       
  29 H29           -3.2540    -0.4960     0.0856 H       
  30 H30           -2.2307    -0.2605     1.5128 H       
  31 H31            1.6070     2.9086     0.5992 H       
  32 H32            3.8594     0.0283     1.1691 H       
  33 H33            3.9955     0.3396    -0.5781 H       
  34 H34            5.3517     4.2477     1.1303 H       
  35 H35            5.8144     0.0570     0.4307 H       
  36 H36            8.2536     0.2920     0.6626 H       
  37 H37            9.2411     2.4992     1.1220 H       
  38 H38            7.7922     4.4751     1.3564 H       
  39 H39           -4.7461     0.2308     0.6249 H       
  40 H40           -6.9542     1.3117     0.2903 H       
  41 H41           -7.0237     3.6841    -0.4447 H       
@<TRIPOS>BOND
   1    1    2 1
   2    1    7 2
   3    1    6 1
   4    2    3 1
   5    2    9 1
   6    3    4 1
   7    3   27 1
   8    3   28 1
   9    4    5 1
  10    4   29 1
  11    4   30 1
  12    5    6 am
  13    5   19 1
  14    6   13 2
  15    7    8 1
  16    7   31 1
  17    8    9 2
  18    8   10 1
  19   10   11 1
  20   10   32 1
  21   10   33 1
  22   11   12 1
  23   12   14 ar
  24   12   15 ar
  25   14   18 ar
  26   14   34 1
  27   15   16 ar
  28   15   35 1
  29   16   17 ar
  30   16   36 1
  31   17   18 ar
  32   17   37 1
  33   18   38 1
  34   19   20 ar
  35   19   24 ar
  36   20   21 ar
  37   20   39 1
  38   21   22 ar
  39   21   40 1
  40   22   23 ar
  41   22   41 1
  42   23   24 ar
  43   23   25 1
  44   25   26 3

#	End of record

