#	Name: ASD01815740
#	Creating user name:	WinNT
#	Creation time:	15. 06. 2019 19:33

#	Modifying user name:	WinNT
#	Modification time:	15. 06. 2019 19:33

#	Program:	/corina/corina34_cracker 3.40 0067  02.08.2006

@<TRIPOS>MOLECULE
ASD01815740
  75   80    0    0    0
SMALL
NO_CHARGES


@<TRIPOS>ATOM
   1 C1            -0.5662     1.0264     0.1602 C.ar    
   2 C2            -0.2886    -0.3367     0.1564 C.ar    
   3 C3             0.9897    -0.7921     0.0274 C.ar    
   4 C4             2.0452     0.1233    -0.1039 C.ar    
   5 C5             1.7588     1.5103    -0.0997 C.ar    
   6 C6             0.4359     1.9438     0.0345 C.ar    
   7 C7             3.3780    -0.3183    -0.2395 C.ar    
   8 C8             4.3985     0.5631    -0.3669 C.ar    
   9 C9             4.1691     1.9478    -0.3689 C.ar    
  10 C10            2.8635     2.4549    -0.2369 C.ar    
  11 C11            5.2676     2.9125    -0.5073 C.2     
  12 N12            4.9476     4.2274    -0.4989 N.am    
  13 C13            3.6562     4.6208    -0.3663 C.2     
  14 N14            2.6675     3.7841    -0.2427 N.2     
  15 O15            6.4223     2.5435    -0.6247 O.2     
  16 C16            6.0039     5.2335    -0.6336 C.3     
  17 C17            6.0141     6.1348     0.6049 C.3     
  18 C18            7.0673     7.2304     0.4205 C.3     
  19 O19            6.7791     7.9714    -0.7669 O.3     
  20 C20            6.8025     7.1894    -1.9627 C.3     
  21 C21            5.7386     6.0921    -1.8741 C.3     
  22 C22            3.6716    -1.7964    -0.2422 C.3     
  23 C23            3.4965    -2.3408    -1.6365 C.ar    
  24 C24            4.5690    -2.3606    -2.5092 C.ar    
  25 C25            4.4119    -2.8588    -3.7876 C.ar    
  26 C26            3.1748    -3.3404    -4.1965 C.ar    
  27 C27            2.0995    -3.3190    -3.3174 C.ar    
  28 C28            2.2650    -2.8246    -2.0385 C.ar    
  29 O29            6.3326     5.3557     1.7598 O.3     
  30 N30            3.0123    -3.8445    -5.4889 N.3     
  31 C31            1.6315    -4.2974    -5.7078 C.3     
  32 C32            1.4752    -4.7674    -7.1560 C.3     
  33 N33            2.4305    -5.8518    -7.4222 N.3     
  34 C34            3.8113    -5.3989    -7.2033 C.3     
  35 C35            3.9677    -4.9289    -5.7552 C.3     
  36 C36            2.2597    -6.3820    -8.7815 C.3     
  37 C37            3.3333    -7.4369    -9.0561 C.3     
  38 O38            3.1690    -8.5306    -8.1512 O.3     
  39 C39            4.1268    -9.5769    -8.3240 C.3     
  40 H40           -1.5877     1.3625     0.2592 H       
  41 H41           -1.0978    -1.0447     0.2576 H       
  42 H42            1.1895    -1.8534     0.0266 H       
  43 H43            0.2086     2.9996     0.0384 H       
  44 H44            5.4082     0.1934    -0.4686 H       
  45 H45            3.4384     5.6786    -0.3632 H       
  46 H46            6.9701     4.7388    -0.7325 H       
  47 H47            5.0323     6.5909     0.7315 H       
  48 H48            7.0495     7.9002     1.2803 H       
  49 H49            8.0540     6.7753     0.3345 H       
  50 H50            6.5938     7.8296    -2.8199 H       
  51 H51            7.7857     6.7338    -2.0800 H       
  52 H52            5.7845     5.4674    -2.7661 H       
  53 H53            4.7512     6.5474    -1.7976 H       
  54 H54            4.6972    -1.9637     0.0870 H       
  55 H55            2.9852    -2.3044     0.4351 H       
  56 H56            5.5305    -1.9857    -2.1907 H       
  57 H57            5.2499    -2.8737    -4.4688 H       
  58 H58            1.1363    -3.6926    -3.6321 H       
  59 H59            1.4295    -2.8080    -1.3543 H       
  60 H60            6.3567     5.8635     2.5824 H       
  61 H61            1.4080    -5.1226    -5.0316 H       
  62 H62            0.9440    -3.4736    -5.5166 H       
  63 H63            0.4596    -5.1309    -7.3127 H       
  64 H64            1.6722    -3.9351    -7.8317 H       
  65 H65            4.4989    -6.2227    -7.3946 H       
  66 H66            4.0349    -4.5738    -7.8796 H       
  67 H67            4.9833    -4.5655    -5.5985 H       
  68 H68            3.7707    -5.7612    -5.0795 H       
  69 H69            1.2728    -6.8356    -8.8732 H       
  70 H70            2.3549    -5.5704    -9.5028 H       
  71 H71            3.2365    -7.7956   -10.0809 H       
  72 H72            4.3202    -6.9956    -8.9173 H       
  73 H73            4.0465    -9.9800    -9.3335 H       
  74 H74            5.1302    -9.1800    -8.1699 H       
  75 H75            3.9343   -10.3689    -7.6002 H       
@<TRIPOS>BOND
   1    1    2 ar
   2    1    6 ar
   3    1   40 1
   4    2    3 ar
   5    2   41 1
   6    3    4 ar
   7    3   42 1
   8    4    5 ar
   9    4    7 ar
  10    5    6 ar
  11    5   10 ar
  12    6   43 1
  13    7    8 ar
  14    7   22 1
  15    8    9 ar
  16    8   44 1
  17    9   10 ar
  18    9   11 1
  19   10   14 1
  20   11   12 am
  21   11   15 2
  22   12   13 1
  23   12   16 1
  24   13   14 2
  25   13   45 1
  26   16   17 1
  27   16   21 1
  28   16   46 1
  29   17   18 1
  30   17   29 1
  31   17   47 1
  32   18   19 1
  33   18   48 1
  34   18   49 1
  35   19   20 1
  36   20   21 1
  37   20   50 1
  38   20   51 1
  39   21   52 1
  40   21   53 1
  41   22   23 1
  42   22   54 1
  43   22   55 1
  44   23   24 ar
  45   23   28 ar
  46   24   25 ar
  47   24   56 1
  48   25   26 ar
  49   25   57 1
  50   26   27 ar
  51   26   30 1
  52   27   28 ar
  53   27   58 1
  54   28   59 1
  55   29   60 1
  56   30   31 1
  57   30   35 1
  58   31   32 1
  59   31   61 1
  60   31   62 1
  61   32   33 1
  62   32   63 1
  63   32   64 1
  64   33   34 1
  65   33   36 1
  66   34   35 1
  67   34   65 1
  68   34   66 1
  69   35   67 1
  70   35   68 1
  71   36   37 1
  72   36   69 1
  73   36   70 1
  74   37   38 1
  75   37   71 1
  76   37   72 1
  77   38   39 1
  78   39   73 1
  79   39   74 1
  80   39   75 1

#	End of record

