#	Name: ASD01410102
#	Creating user name:	WinNT
#	Creation time:	15. 06. 2019 19:16

#	Modifying user name:	WinNT
#	Modification time:	15. 06. 2019 19:16

#	Program:	/corina/corina34_cracker 3.40 0067  02.08.2006

@<TRIPOS>MOLECULE
ASD01410102
  35   38    0    0    0
SMALL
NO_CHARGES


@<TRIPOS>ATOM
   1 C1            -0.3951     0.9959     2.2015 C.ar    
   2 C2            -0.2905    -0.3053     1.7256 C.ar    
   3 C3            -1.3658    -0.8948     1.0849 C.ar    
   4 C4            -2.5549    -0.1727     0.9208 C.ar    
   5 C5            -2.6605     1.1428     1.4020 C.ar    
   6 C6            -1.5719     1.7138     2.0464 C.ar    
   7 C7            -3.8505    -0.4949     0.3021 C.2     
   8 C8            -4.6572     0.7224     0.4787 C.2     
   9 O9            -3.8910     1.6295     1.1285 O.3     
  10 O10           -4.1812    -1.5374    -0.2367 O.2     
  11 C11           -5.9387     0.9032     0.0651 C.2     
  12 C12           -6.5694     2.2196     0.1887 C.ar    
  13 O13            0.6633     1.5685     2.8295 O.3     
  14 O14           -1.2690    -2.1650     0.6179 O.3     
  15 C15           -8.0234     2.3632     0.1025 C.ar    
  16 C16           -8.5910     3.6546     0.2275 C.ar    
  17 C17           -7.7506     4.7625     0.4293 C.ar    
  18 C18           -6.3995     4.6067     0.5051 C.ar    
  19 C19           -5.7987     3.3617     0.3968 C.ar    
  20 C20           -8.8565     1.2579    -0.1000 C.ar    
  21 C21          -10.2065     1.4360    -0.1747 C.ar    
  22 C22          -10.7684     2.7043    -0.0522 C.ar    
  23 C23           -9.9866     3.8015     0.1459 C.ar    
  24 H24            0.6295    -0.8559     1.8553 H       
  25 H25           -1.6386     2.7243     2.4216 H       
  26 H26           -6.4923     0.0764    -0.3549 H       
  27 H27            1.2636     2.0413     2.2369 H       
  28 H28           -1.5340    -2.8404     1.2572 H       
  29 H29           -8.1807     5.7486     0.5249 H       
  30 H30           -5.7789     5.4770     0.6600 H       
  31 H31           -4.7239     3.2780     0.4624 H       
  32 H32           -8.4330     0.2692    -0.1969 H       
  33 H33          -10.8486     0.5819    -0.3314 H       
  34 H34          -11.8405     2.8194    -0.1149 H       
  35 H35          -10.4362     4.7790     0.2395 H       
@<TRIPOS>BOND
   1    1    2 ar
   2    1   13 1
   3    1    6 ar
   4    2    3 ar
   5    2   24 1
   6    3    4 ar
   7    3   14 1
   8    4    5 ar
   9    4    7 1
  10    5    6 ar
  11    5    9 1
  12    6   25 1
  13    7    8 1
  14    7   10 2
  15    8    9 1
  16    8   11 2
  17   11   12 1
  18   11   26 1
  19   12   15 ar
  20   12   19 ar
  21   13   27 1
  22   14   28 1
  23   15   16 ar
  24   15   20 ar
  25   16   17 ar
  26   16   23 ar
  27   17   18 ar
  28   17   29 1
  29   18   19 ar
  30   18   30 1
  31   19   31 1
  32   20   21 ar
  33   20   32 1
  34   21   22 ar
  35   21   33 1
  36   22   23 ar
  37   22   34 1
  38   23   35 1

#	End of record

