#	Name: ASD04882036
#	Creating user name:	WinNT
#	Creation time:	15. 06. 2019 20:53

#	Modifying user name:	WinNT
#	Modification time:	15. 06. 2019 20:53

#	Program:	/corina/corina34_cracker 3.40 0067  02.08.2006

@<TRIPOS>MOLECULE
ASD04882036
  77   81    0    0    0
SMALL
NO_CHARGES


@<TRIPOS>ATOM
   1 C1             1.5173     1.4363     1.7945 C.ar    
   2 C2             1.4796     0.0562     1.8137 C.ar    
   3 C3             2.6606    -0.6681     1.9184 C.ar    
   4 C4             3.8756    -0.0007     2.0036 C.ar    
   5 C5             3.9062     1.3801     1.9838 C.ar    
   6 C6             2.7290     2.0978     1.8795 C.ar    
   7 C7             5.1591    -0.7821     2.1178 C.3     
   8 N8             2.6260    -2.0643     1.9385 N.3     
   9 C9             3.2416    -2.6238     0.7271 C.3     
  10 C10            3.2555    -4.1512     0.8240 C.3     
  11 N11            1.8798    -4.6416     0.9869 N.3     
  12 C12            1.2642    -4.0821     2.1983 C.3     
  13 C13            1.2503    -2.5547     2.1014 C.3     
  14 C14            1.8453    -6.0335     1.0069 C.ar    
  15 C15            2.1828    -6.7565    -0.1405 C.ar    
  16 C16            2.1485    -8.1381    -0.1203 C.ar    
  17 C17            1.7761    -8.8078     1.0486 C.ar    
  18 C18            1.4397    -8.0786     2.1926 C.ar    
  19 C19            1.4807    -6.7022     2.1700 C.ar    
  20 C20            1.7375   -10.2823     1.0747 C.2     
  21 N21            1.3782   -10.9272     2.2023 N.am    
  22 O22            2.0299   -10.9159     0.0789 O.2     
  23 C23            1.3400   -12.3915     2.2283 C.3     
  24 C24            0.9044   -12.8657     3.6161 C.3     
  25 C25            0.8644   -14.3950     3.6432 C.3     
  26 N26            0.4473   -14.8491     4.9722 N.am    
  27 C27           -0.9466   -15.0818     5.3680 C.3     
  28 C28           -0.9367   -15.1133     6.9125 C.3     
  29 C29            0.5184   -15.5437     7.2097 C.3     
  30 C30            1.2926   -15.1117     5.9838 C.2     
  31 O31            2.4997   -15.0099     5.9247 O.2     
  32 N32            2.5552    -6.0815    -1.3104 N.am    
  33 C33            3.3604    -6.6830    -2.2083 C.2     
  34 O34            3.6999    -7.8387    -2.0421 O.2     
  35 C35            3.8303    -5.9385    -3.3942 C.ar    
  36 C36            4.6648    -6.5594    -4.3262 C.ar    
  37 C37            3.4372    -4.6128    -3.5905 C.ar    
  38 C38            3.8783    -3.9228    -4.6992 C.ar    
  39 C39            4.7109    -4.5425    -5.6186 C.ar    
  40 C40            5.1000    -5.8601    -5.4313 C.ar    
  41 F41            5.1403    -3.8616    -6.7036 F       
  42 H42            0.6000     1.9999     1.7086 H       
  43 H43            0.5331    -0.4597     1.7476 H       
  44 H44            4.8507     1.8997     2.0500 H       
  45 H45            2.7557     3.1774     1.8640 H       
  46 H46            5.5090    -1.0537     1.1219 H       
  47 H47            5.9134    -0.1712     2.6139 H       
  48 H48            4.9833    -1.6864     2.7004 H       
  49 H49            2.6656    -2.3201    -0.1470 H       
  50 H50            4.2635    -2.2559     0.6353 H       
  51 H51            3.6853    -4.5694    -0.0861 H       
  52 H52            3.8541    -4.4557     1.6825 H       
  53 H53            0.2422    -4.4499     2.2901 H       
  54 H54            1.8402    -4.3858     3.0724 H       
  55 H55            0.8205    -2.1364     3.0116 H       
  56 H56            0.6517    -2.2502     1.2429 H       
  57 H57            2.4086    -8.6989    -1.0059 H       
  58 H58            1.1514    -8.5950     3.0962 H       
  59 H59            1.2203    -6.1408     3.0551 H       
  60 H60            1.1450   -10.4218     2.9967 H       
  61 H61            0.6302   -12.7496     1.4826 H       
  62 H62            2.3316   -12.7848     2.0045 H       
  63 H63            1.6141   -12.5076     4.3618 H       
  64 H64           -0.0872   -12.4723     3.8399 H       
  65 H65            0.1547   -14.7531     2.8975 H       
  66 H66            1.8560   -14.7884     3.4195 H       
  67 H67           -1.5806   -14.2701     5.0114 H       
  68 H68           -1.2965   -16.0358     4.9736 H       
  69 H69           -1.1430   -14.1253     7.3241 H       
  70 H70           -1.6462   -15.8484     7.2922 H       
  71 H71            0.8923   -15.0362     8.0989 H       
  72 H72            0.5788   -16.6251     7.3328 H       
  73 H73            2.2335    -5.1811    -1.4741 H       
  74 H74            4.9687    -7.5856    -4.1811 H       
  75 H75            2.7884    -4.1293    -2.8751 H       
  76 H76            3.5746    -2.8978    -4.8522 H       
  77 H77            5.7489    -6.3379    -6.1504 H       
@<TRIPOS>BOND
   1    1    2 ar
   2    1    6 ar
   3    1   42 1
   4    2    3 ar
   5    2   43 1
   6    3    4 ar
   7    3    8 1
   8    4    5 ar
   9    4    7 1
  10    5    6 ar
  11    5   44 1
  12    6   45 1
  13    7   46 1
  14    7   47 1
  15    7   48 1
  16    8    9 1
  17    8   13 1
  18    9   10 1
  19    9   49 1
  20    9   50 1
  21   10   11 1
  22   10   51 1
  23   10   52 1
  24   11   12 1
  25   11   14 1
  26   12   13 1
  27   12   53 1
  28   12   54 1
  29   13   55 1
  30   13   56 1
  31   14   15 ar
  32   14   19 ar
  33   15   16 ar
  34   15   32 1
  35   16   17 ar
  36   16   57 1
  37   17   18 ar
  38   17   20 1
  39   18   19 ar
  40   18   58 1
  41   19   59 1
  42   20   21 am
  43   20   22 2
  44   21   23 1
  45   21   60 1
  46   23   24 1
  47   23   61 1
  48   23   62 1
  49   24   25 1
  50   24   63 1
  51   24   64 1
  52   25   26 1
  53   25   65 1
  54   25   66 1
  55   26   27 1
  56   26   30 am
  57   27   28 1
  58   27   67 1
  59   27   68 1
  60   28   29 1
  61   28   69 1
  62   28   70 1
  63   29   30 1
  64   29   71 1
  65   29   72 1
  66   30   31 2
  67   32   33 am
  68   32   73 1
  69   33   34 2
  70   33   35 1
  71   35   36 ar
  72   35   37 ar
  73   36   40 ar
  74   36   74 1
  75   37   38 ar
  76   37   75 1
  77   38   39 ar
  78   38   76 1
  79   39   40 ar
  80   39   41 1
  81   40   77 1

#	End of record

