#	Name: ASD01850095
#	Creating user name:	WinNT
#	Creation time:	15. 06. 2019 19:38

#	Modifying user name:	WinNT
#	Modification time:	15. 06. 2019 19:38

#	Program:	/corina/corina34_cracker 3.40 0067  02.08.2006

@<TRIPOS>MOLECULE
ASD01850095
  49   53    0    0    0
SMALL
NO_CHARGES


@<TRIPOS>ATOM
   1 C1             0.1479     1.0697    -0.1545 C.ar    
   2 C2             0.3400    -0.2954    -0.0385 C.ar    
   3 C3             1.6110    -0.8073     0.1248 C.ar    
   4 C4             2.7065     0.0540     0.1732 C.ar    
   5 C5             2.5003     1.4356     0.0732 C.ar    
   6 C6             1.2293     1.9329    -0.0985 C.ar    
   7 C7             4.1586    -0.1876     0.3123 C.2     
   8 N8             4.8248     0.9541     0.1447 N.am    
   9 C9             3.8526     2.0696     0.2176 C.3     
  10 C10            6.0895     1.6475    -0.1636 C.3     
  11 C11            5.6436     2.7487    -1.1572 C.3     
  12 N12            4.1999     2.9496    -0.9036 N.am    
  13 C13            3.3694     3.7755    -1.5703 C.2     
  14 C14            3.9066     4.6932    -2.5957 C.ar    
  15 C15            3.0729     5.6403    -3.1939 C.ar    
  16 C16            3.5806     6.4956    -4.1513 C.ar    
  17 C17            4.9171     6.4143    -4.5186 C.ar    
  18 C18            5.7471     5.4750    -3.9271 C.ar    
  19 C19            5.2511     4.6203    -2.9659 C.ar    
  20 O20            2.1782     3.7653    -1.3277 O.2     
  21 C21            3.9649     2.7920     1.5354 C.ar    
  22 C22            3.6659     4.1383     1.6119 C.ar    
  23 C23            3.7690     4.8028     2.8256 C.ar    
  24 C24            4.1723     4.1128     3.9593 C.ar    
  25 C25            4.4703     2.7662     3.8775 C.ar    
  26 C26            4.3617     2.1052     2.6682 C.ar    
  27 O27            4.6683    -1.2663     0.5447 O.2     
  28 F28            5.4100     7.2531    -5.4559 F       
  29 F29            2.7760     7.4125    -4.7319 F       
  30 O30            3.4758     6.1275     2.9034 O.3     
  31 C31            3.6041     6.7462     4.1851 C.3     
  32 H32           -0.8482     1.4632    -0.2935 H       
  33 H33           -0.5081    -0.9630    -0.0757 H       
  34 H34            1.7570    -1.8736     0.2154 H       
  35 H35            1.0747     2.9978    -0.1905 H       
  36 H36            6.5168     2.0896     0.7364 H       
  37 H37            6.7984     0.9665    -0.6346 H       
  38 H38            6.1917     3.6716    -0.9679 H       
  39 H39            5.8037     2.4179    -2.1834 H       
  40 H40            2.0332     5.7034    -2.9085 H       
  41 H41            6.7859     5.4156    -4.2166 H       
  42 H42            5.8995     3.8890    -2.5062 H       
  43 H43            3.3524     4.6735     0.7277 H       
  44 H44            4.2537     4.6279     4.9051 H       
  45 H45            4.7844     2.2285     4.7599 H       
  46 H46            4.5951     1.0526     2.6062 H       
  47 H47            2.9361     6.2563     4.8936 H       
  48 H48            4.6332     6.6532     4.5321 H       
  49 H49            3.3408     7.8011     4.1074 H       
@<TRIPOS>BOND
   1    1    2 ar
   2    1    6 ar
   3    1   32 1
   4    2    3 ar
   5    2   33 1
   6    3    4 ar
   7    3   34 1
   8    4    5 ar
   9    4    7 1
  10    5    6 ar
  11    5    9 1
  12    6   35 1
  13    7    8 am
  14    7   27 2
  15    8    9 1
  16    8   10 1
  17    9   21 1
  18    9   12 1
  19   10   11 1
  20   10   36 1
  21   10   37 1
  22   11   12 1
  23   11   38 1
  24   11   39 1
  25   12   13 am
  26   13   14 1
  27   13   20 2
  28   14   15 ar
  29   14   19 ar
  30   15   16 ar
  31   15   40 1
  32   16   17 ar
  33   16   29 1
  34   17   18 ar
  35   17   28 1
  36   18   19 ar
  37   18   41 1
  38   19   42 1
  39   21   22 ar
  40   21   26 ar
  41   22   23 ar
  42   22   43 1
  43   23   24 ar
  44   23   30 1
  45   24   25 ar
  46   24   44 1
  47   25   26 ar
  48   25   45 1
  49   26   46 1
  50   30   31 1
  51   31   47 1
  52   31   48 1
  53   31   49 1

#	End of record

