#	Name: ASD07930582
#	Creating user name:	WinNT
#	Creation time:	15. 06. 2019 21:12

#	Modifying user name:	WinNT
#	Modification time:	15. 06. 2019 21:12

#	Program:	/corina/corina34_cracker 3.40 0067  02.08.2006

@<TRIPOS>MOLECULE
ASD07930582
  44   46    0    0    0
SMALL
NO_CHARGES


@<TRIPOS>ATOM
   1 C1             1.3697     0.7538    -1.5456 C.3     
   2 N2             2.3131    -2.0762    -1.4378 N.2     
   3 N3             0.0352    -2.5810    -1.3053 N.pl3   
   4 C4            -0.8997    -2.7420    -0.1868 C.3     
   5 C5            -1.5449    -1.3864     0.1326 C.3     
   6 S6            -0.2173    -0.1883     0.4738 S.o2    
   7 N7             0.8031    -0.3907    -0.8278 N.am    
   8 C8             1.0893    -1.6969    -1.1986 C.2     
   9 C9            -0.1432    -3.2501     1.0422 C.3     
  10 C10           -1.9707    -3.7325    -0.5647 C.ar    
  11 C11           -1.6888    -4.7461    -1.4620 C.ar    
  12 C12           -2.6775    -5.6604    -1.8101 C.ar    
  13 C13           -3.9453    -5.5531    -1.2559 C.ar    
  14 C14           -4.2232    -4.5375    -0.3585 C.ar    
  15 C15           -3.2347    -3.6304    -0.0089 C.ar    
  16 O16           -0.6960     1.1439     0.3491 O.2     
  17 O17            0.5518    -0.5942     1.5976 O.2     
  18 F18           -3.5081    -2.6393     0.8676 F       
  19 N19           -2.3942    -6.6873    -2.7189 N.am    
  20 C20           -3.3900    -7.2500    -3.4317 C.2     
  21 O21           -4.5171    -6.8018    -3.3597 O.2     
  22 C22           -3.1100    -8.4169    -4.3043 C.ar    
  23 N23           -4.1016    -8.9571    -4.9977 N.ar    
  24 C24           -1.5882    -9.9255    -5.1404 C.ar    
  25 N25           -1.8738    -8.8887    -4.3743 N.ar    
  26 C26           -3.8890    -9.9961    -5.7842 C.ar    
  27 C27           -2.6048   -10.5223    -5.8788 C.ar    
  28 F28           -2.3499   -11.5847    -6.6733 F       
  29 F29           -0.4540    -4.8481    -2.0005 F       
  30 F30           -5.4572    -4.4326     0.1813 F       
  31 H31            2.3188     1.0352    -1.0894 H       
  32 H32            1.5340     0.4834    -2.5887 H       
  33 H33            0.6779     1.5945    -1.4929 H       
  34 H34            3.0421    -1.4414    -1.3576 H       
  35 H35           -0.0849    -3.0980    -2.1172 H       
  36 H36           -2.1336    -1.0495    -0.7206 H       
  37 H37           -2.1872    -1.4823     1.0080 H       
  38 H38            0.6916    -2.5829     1.2565 H       
  39 H39           -0.8170    -3.2757     1.8987 H       
  40 H40            0.2346    -4.2538     0.8471 H       
  41 H41           -4.7146    -6.2617    -1.5252 H       
  42 H42           -1.4813    -6.9936    -2.8354 H       
  43 H43           -0.5786   -10.3054    -5.1928 H       
  44 H44           -4.7016   -10.4320    -6.3465 H       
@<TRIPOS>BOND
   1    1    7 1
   2    1   31 1
   3    1   32 1
   4    1   33 1
   5    2    8 2
   6    2   34 1
   7    3    4 1
   8    3    8 1
   9    3   35 1
  10    4    5 1
  11    4    9 1
  12    4   10 1
  13    5    6 1
  14    5   36 1
  15    5   37 1
  16    6    7 am
  17    6   16 2
  18    6   17 2
  19    7    8 1
  20    9   38 1
  21    9   39 1
  22    9   40 1
  23   10   11 ar
  24   10   15 ar
  25   11   12 ar
  26   11   29 1
  27   12   13 ar
  28   12   19 1
  29   13   14 ar
  30   13   41 1
  31   14   15 ar
  32   14   30 1
  33   15   18 1
  34   19   20 am
  35   19   42 1
  36   20   21 2
  37   20   22 1
  38   22   23 ar
  39   22   25 ar
  40   23   26 ar
  41   24   25 ar
  42   24   27 ar
  43   24   43 1
  44   26   27 ar
  45   26   44 1
  46   27   28 1

#	End of record

