#	Name: ASD01208706
#	Creating user name:	WinNT
#	Creation time:	15. 06. 2019 19:10

#	Modifying user name:	WinNT
#	Modification time:	15. 06. 2019 19:10

#	Program:	/corina/corina34_cracker 3.40 0067  02.08.2006

@<TRIPOS>MOLECULE
ASD01208706
  55   58    0    0    0
SMALL
NO_CHARGES


@<TRIPOS>ATOM
   1 C1            -0.1049     1.5276     0.1328 C.2     
   2 C2             0.0348     0.0695     0.3053 C.ar    
   3 C3             1.2904    -0.5388     0.1696 C.ar    
   4 C4             1.4132    -1.9102     0.3333 C.ar    
   5 C5             0.3026    -2.6753     0.6291 C.ar    
   6 C6            -0.9448    -2.0789     0.7649 C.ar    
   7 C7            -1.0823    -0.7116     0.6103 C.ar    
   8 O8             0.8705     2.2053    -0.1277 O.2     
   9 N9            -1.3147     2.1082     0.2586 N.am    
  10 S10           -2.9151     4.3466     0.2272 S.3     
  11 C11           -1.4464     3.4813     0.0961 C.2     
  12 N12           -0.4733     4.2936    -0.1762 N.2     
  13 C13           -0.7781     5.5722    -0.2961 C.2     
  14 C14           -2.0701     5.8538    -0.1166 C.2     
  15 O15            2.3826     0.2123    -0.1215 O.3     
  16 C16            3.5682    -0.4270    -0.2955 C.ar    
  17 C17            3.8242    -1.1008    -1.4831 C.ar    
  18 C18            5.0260    -1.7507    -1.6634 C.ar    
  19 C19            5.9869    -1.7313    -0.6505 C.ar    
  20 C20            5.7258    -1.0530     0.5417 C.ar    
  21 C21            4.5239    -0.4007     0.7123 C.ar    
  22 O22            8.2890    -2.4905     0.0484 O.3     
  23 C23            7.2766    -2.4273    -0.8396 C.2     
  24 N24            7.6498    -3.1001    -1.9033 N.2     
  25 N25            8.8325    -3.5701    -1.7146 N.2     
  26 C26            9.2577    -3.2192    -0.5334 C.2     
  27 C27           10.5939    -3.5668     0.0707 C.3     
  28 O28           -2.0326    -2.8410     1.0564 O.3     
  29 C29           -2.9295    -4.7681     2.2063 C.3     
  30 C30           -1.8014    -4.2250     1.3269 C.3     
  31 C31           -1.7621    -5.0025     0.0098 C.3     
  32 O32           -4.1607    -4.7250     1.4822 O.3     
  33 C33           -5.2848    -5.2129     2.2174 C.3     
  34 H34            2.3795    -2.3809     0.2289 H       
  35 H35            0.4040    -3.7432     0.7552 H       
  36 H36           -2.0521    -0.2492     0.7211 H       
  37 H37           -2.0935     1.5671     0.4625 H       
  38 H38           -0.0415     6.3292    -0.5213 H       
  39 H39           -2.5193     6.8343    -0.1727 H       
  40 H40            3.0803    -1.1156    -2.2659 H       
  41 H41            5.2242    -2.2746    -2.5867 H       
  42 H42            6.4665    -1.0361     1.3276 H       
  43 H43            4.3230     0.1279     1.6324 H       
  44 H44           10.5124    -4.5067     0.6166 H       
  45 H45           11.3351    -3.6700    -0.7218 H       
  46 H46           10.9006    -2.7751     0.7542 H       
  47 H47           -2.7084    -5.7982     2.4860 H       
  48 H48           -3.0152    -4.1579     3.1054 H       
  49 H49           -0.8494    -4.3398     1.8452 H       
  50 H50           -1.5858    -6.0582     0.2162 H       
  51 H51           -2.7141    -4.8877    -0.5084 H       
  52 H52           -0.9584    -4.6156    -0.6167 H       
  53 H53           -5.1125    -6.2522     2.4973 H       
  54 H54           -5.4193    -4.6119     3.1167 H       
  55 H55           -6.1799    -5.1468     1.5989 H       
@<TRIPOS>BOND
   1    1    2 1
   2    1    8 2
   3    1    9 am
   4    2    3 ar
   5    2    7 ar
   6    3    4 ar
   7    3   15 1
   8    4    5 ar
   9    4   34 1
  10    5    6 ar
  11    5   35 1
  12    6    7 ar
  13    6   28 1
  14    7   36 1
  15    9   11 1
  16    9   37 1
  17   10   11 1
  18   10   14 1
  19   11   12 2
  20   12   13 1
  21   13   14 2
  22   13   38 1
  23   14   39 1
  24   15   16 1
  25   16   17 ar
  26   16   21 ar
  27   17   18 ar
  28   17   40 1
  29   18   19 ar
  30   18   41 1
  31   19   20 ar
  32   19   23 1
  33   20   21 ar
  34   20   42 1
  35   21   43 1
  36   22   23 1
  37   22   26 1
  38   23   24 2
  39   24   25 1
  40   25   26 2
  41   26   27 1
  42   27   44 1
  43   27   45 1
  44   27   46 1
  45   28   30 1
  46   29   30 1
  47   29   32 1
  48   29   47 1
  49   29   48 1
  50   30   31 1
  51   30   49 1
  52   31   50 1
  53   31   51 1
  54   31   52 1
  55   32   33 1
  56   33   53 1
  57   33   54 1
  58   33   55 1

#	End of record

