#	Name: ASD05490016
#	Creating user name:	WinNT
#	Creation time:	15. 06. 2019 21:00

#	Modifying user name:	WinNT
#	Modification time:	15. 06. 2019 21:00

#	Program:	/corina/corina34_cracker 3.40 0067  02.08.2006

@<TRIPOS>MOLECULE
ASD05490016
  67   71    0    0    0
SMALL
NO_CHARGES


@<TRIPOS>ATOM
   1 O1            -0.0173     1.4248     0.0099 O.3     
   2 N2             2.7162     5.3699     0.0053 N.am    
   3 N3             2.2880     1.3303    -0.0126 N.ar    
   4 C4             3.4867     1.9104    -0.0211 C.ar    
   5 C5             1.1817     2.0564     0.0018 C.ar    
   6 N6             1.2086     3.3789     0.0091 N.ar    
   7 C7             2.3660     4.0319     0.0015 C.ar    
   8 C8             3.5555     3.3024    -0.0142 C.ar    
   9 N9             4.6434     1.1447    -0.0366 N.pl3   
  10 C10            4.0594     5.4635    -0.0126 C.2     
  11 N11            4.5983     4.2283    -0.0196 N.am    
  12 O12            4.6902     6.5042    -0.0150 O.2     
  13 C13            1.7812     6.4976     0.0199 C.3     
  14 C14            1.4739     6.8769     1.4457 C.ar    
  15 C15            2.2566     7.8158     2.0930 C.ar    
  16 C16            1.9796     8.1668     3.3988 C.ar    
  17 C17            0.9089     7.5739     4.0647 C.ar    
  18 C18            0.1235     6.6290     3.4077 C.ar    
  19 C19            0.4065     6.2890     2.1003 C.ar    
  20 C20            0.0021    -0.0041     0.0020 C.3     
  21 C21           -1.4333    -0.5336     0.0129 C.3     
  22 C22           -1.4126    -2.0635     0.0045 C.3     
  23 C23           -2.8479    -2.5931     0.0153 C.3     
  24 C24            0.6066     7.9469     5.4688 C.ar    
  25 C25           -0.4643     7.3539     6.1349 C.ar    
  26 C26            1.3957     8.8871     6.1278 C.ar    
  27 C27            1.1099     9.2305     7.4339 C.ar    
  28 C28            0.0425     8.6430     8.0883 C.ar    
  29 C29           -0.7409     7.7046     7.4405 C.ar    
  30 C30           -1.9027     7.0692     8.1599 C.3     
  31 N31           -3.1133     7.8716     7.9395 N.3     
  32 C32           -4.3123     7.1631     8.4237 C.3     
  33 C33           -3.0212     9.1720     8.6369 C.3     
  34 C34           -4.4733     9.4914     9.0717 C.3     
  35 C35           -5.0036     8.0837     9.4512 C.3     
  36 H36            4.5841     0.1765    -0.0414 H       
  37 H37            5.5114     1.5775    -0.0427 H       
  38 H38            5.5456     4.0197    -0.0267 H       
  39 H39            2.2297     7.3481    -0.4936 H       
  40 H40            0.8594     6.2120    -0.4868 H       
  41 H41            3.0863     8.2747     1.5759 H       
  42 H42            2.5919     8.8995     3.9035 H       
  43 H43           -0.7076     6.1664     3.9192 H       
  44 H44           -0.2018     5.5570     1.5899 H       
  45 H45            0.5123    -0.3556    -0.8948 H       
  46 H46            0.5293    -0.3651     0.8851 H       
  47 H47           -1.9435    -0.1821     0.9097 H       
  48 H48           -1.9605    -0.1726    -0.8702 H       
  49 H49           -0.9024    -2.4150    -0.8923 H       
  50 H50           -0.8854    -2.4246     0.8875 H       
  51 H51           -3.3581    -2.2415     0.9121 H       
  52 H52           -3.3751    -2.2320    -0.8677 H       
  53 H53           -2.8332    -3.6829     0.0093 H       
  54 H54           -1.0767     6.6215     5.6300 H       
  55 H55            2.2297     9.3462     5.6178 H       
  56 H56            1.7212     9.9589     7.9458 H       
  57 H57           -0.1774     8.9143     9.1103 H       
  58 H58           -2.0602     6.0611     7.7763 H       
  59 H59           -1.6873     7.0222     9.2274 H       
  60 H60           -4.9870     6.9643     7.5910 H       
  61 H61           -4.0224     6.2268     8.9006 H       
  62 H62           -2.3732     9.0896     9.5095 H       
  63 H63           -2.6502     9.9407     7.9590 H       
  64 H64           -4.4850    10.1586     9.9336 H       
  65 H65           -5.0444     9.9140     8.2450 H       
  66 H66           -6.0871     8.0378     9.3422 H       
  67 H67           -4.7058     7.8205    10.4662 H       
@<TRIPOS>BOND
   1    1   20 1
   2    1    5 1
   3    2   13 1
   4    2    7 1
   5    2   10 am
   6    3    4 ar
   7    3    5 ar
   8    4    9 1
   9    4    8 ar
  10    5    6 ar
  11    6    7 ar
  12    7    8 ar
  13    8   11 1
  14    9   36 1
  15    9   37 1
  16   10   11 am
  17   10   12 2
  18   11   38 1
  19   13   14 1
  20   13   39 1
  21   13   40 1
  22   14   15 ar
  23   14   19 ar
  24   15   16 ar
  25   15   41 1
  26   16   17 ar
  27   16   42 1
  28   17   18 ar
  29   17   24 1
  30   18   19 ar
  31   18   43 1
  32   19   44 1
  33   20   21 1
  34   20   45 1
  35   20   46 1
  36   21   22 1
  37   21   47 1
  38   21   48 1
  39   22   23 1
  40   22   49 1
  41   22   50 1
  42   23   51 1
  43   23   52 1
  44   23   53 1
  45   24   25 ar
  46   24   26 ar
  47   25   29 ar
  48   25   54 1
  49   26   27 ar
  50   26   55 1
  51   27   28 ar
  52   27   56 1
  53   28   29 ar
  54   28   57 1
  55   29   30 1
  56   30   31 1
  57   30   58 1
  58   30   59 1
  59   31   32 1
  60   31   33 1
  61   32   35 1
  62   32   60 1
  63   32   61 1
  64   33   34 1
  65   33   62 1
  66   33   63 1
  67   34   35 1
  68   34   64 1
  69   34   65 1
  70   35   66 1
  71   35   67 1

#	End of record

