#	Name: ASD01870281
#	Creating user name:	WinNT
#	Creation time:	15. 06. 2019 19:38

#	Modifying user name:	WinNT
#	Modification time:	15. 06. 2019 19:38

#	Program:	/corina/corina34_cracker 3.40 0067  02.08.2006

@<TRIPOS>MOLECULE
ASD01870281
  51   55    0    0    0
SMALL
NO_CHARGES


@<TRIPOS>ATOM
   1 C1            -0.0157     1.3032     0.0092 C.ar    
   2 N2             0.0021    -0.0041     0.0020 N.ar    
   3 C3             1.1375    -0.7157    -0.0126 C.ar    
   4 C4             2.3666    -0.0780    -0.0209 C.ar    
   5 C5             2.4159     1.3217    -0.0135 C.ar    
   6 C6             3.6255     2.0319    -0.0208 C.ar    
   7 C7             3.6044     3.3943    -0.0126 C.ar    
   8 C8             2.3993     4.0930     0.0030 C.ar    
   9 C9             1.2053     3.4357     0.0110 C.ar    
  10 C10            1.1867     2.0342     0.0017 C.ar    
  11 N11            2.6957    -2.4329    -0.0367 N.am    
  12 C12            1.3768    -2.1753    -0.0228 C.2     
  13 C13            3.4189    -1.1560    -0.0367 C.3     
  14 O14            0.5045    -3.0217    -0.0186 O.2     
  15 C15            3.3080    -3.7637    -0.0493 C.3     
  16 C16            2.8775    -4.5350     1.2000 C.3     
  17 C17            3.5170    -5.9249     1.1869 C.3     
  18 C18            3.0635    -6.6832    -0.0622 C.3     
  19 C19            3.4940    -5.9119    -1.3115 C.3     
  20 C20            2.8545    -4.5220    -1.2983 C.3     
  21 O21            3.3011    -3.8267     2.3666 O.3     
  22 C22           -1.3342     2.0329     0.0194 C.3     
  23 C23           -1.3907     3.4205     2.1074 C.ar    
  24 C24           -1.7670     2.2684     1.4436 C.ar    
  25 C25           -2.5480     1.3319     2.1037 C.ar    
  26 C26           -2.9232     1.5902     3.4128 C.ar    
  27 C27           -2.5088     2.7657     4.0131 C.ar    
  28 N28           -1.7660     3.6345     3.3534 N.ar    
  29 Cl29          -2.9714     3.1020     5.6522 Cl      
  30 H30            4.5668     1.5026    -0.0326 H       
  31 H31            4.5360     3.9407    -0.0180 H       
  32 H32            2.4114     5.1729     0.0092 H       
  33 H33            0.2793     3.9914     0.0232 H       
  34 H34            4.0293    -1.0709    -0.9358 H       
  35 H35            4.0463    -1.0805     0.8514 H       
  36 H36            4.3934    -3.6642    -0.0588 H       
  37 H37            1.7921    -4.6346     1.2095 H       
  38 H38            4.6024    -5.8253     1.1774 H       
  39 H39            3.2103    -6.4744     2.0769 H       
  40 H40            3.5191    -7.6734    -0.0715 H       
  41 H41            1.9781    -6.7827    -0.0527 H       
  42 H42            4.5794    -5.8123    -1.3209 H       
  43 H43            3.1709    -6.4521    -2.2013 H       
  44 H44            1.7691    -4.6216    -1.2889 H       
  45 H45            3.1612    -3.9725    -2.1883 H       
  46 H46            3.0614    -4.2590     3.1978 H       
  47 H47           -1.2235     2.9903    -0.4898 H       
  48 H48           -2.0854     1.4329    -0.4942 H       
  49 H49           -0.7787     4.1523     1.6012 H       
  50 H50           -2.8571     0.4227     1.6093 H       
  51 H51           -3.5316     0.8830     3.9570 H       
@<TRIPOS>BOND
   1    1    2 ar
   2    1   10 ar
   3    1   22 1
   4    2    3 ar
   5    3    4 ar
   6    3   12 1
   7    4    5 ar
   8    4   13 1
   9    5    6 ar
  10    5   10 ar
  11    6    7 ar
  12    6   30 1
  13    7    8 ar
  14    7   31 1
  15    8    9 ar
  16    8   32 1
  17    9   10 ar
  18    9   33 1
  19   11   12 am
  20   11   13 1
  21   11   15 1
  22   12   14 2
  23   13   34 1
  24   13   35 1
  25   15   16 1
  26   15   20 1
  27   15   36 1
  28   16   17 1
  29   16   21 1
  30   16   37 1
  31   17   18 1
  32   17   38 1
  33   17   39 1
  34   18   19 1
  35   18   40 1
  36   18   41 1
  37   19   20 1
  38   19   42 1
  39   19   43 1
  40   20   44 1
  41   20   45 1
  42   21   46 1
  43   22   24 1
  44   22   47 1
  45   22   48 1
  46   23   24 ar
  47   23   28 ar
  48   23   49 1
  49   24   25 ar
  50   25   26 ar
  51   25   50 1
  52   26   27 ar
  53   26   51 1
  54   27   28 ar
  55   27   29 1

#	End of record

