#	Name: ASD01913895
#	Creating user name:	WinNT
#	Creation time:	15. 06. 2019 20:02

#	Modifying user name:	WinNT
#	Modification time:	15. 06. 2019 20:02

#	Program:	/corina/corina34_cracker 3.40 0067  02.08.2006

@<TRIPOS>MOLECULE
ASD01913895
  39   41    0    0    0
SMALL
NO_CHARGES


@<TRIPOS>ATOM
   1 C1            -0.0173     1.4278     0.0099 C.ar    
   2 C2             0.0021    -0.0041     0.0020 C.1     
   3 C3             0.0180    -1.1779    -0.0044 C.1     
   4 C4             0.0374    -2.6098    -0.0123 C.ar    
   5 C5            -1.1552    -3.3455    -0.0049 C.ar    
   6 C6             0.0738    -5.2913    -0.0280 C.ar    
   7 N7             1.2234    -4.6331    -0.0407 N.ar    
   8 C8             1.2495    -3.3128    -0.0336 C.ar    
   9 N9            -1.0933    -4.6646    -0.0130 N.ar    
  10 C10            1.1827     2.1472     0.0023 C.ar    
  11 C11            1.1561     3.5287     0.0095 C.ar    
  12 C12           -1.2349     2.1133     0.0194 C.ar    
  13 C13           -0.0527     4.2003     0.0242 C.ar    
  14 C14           -1.2457     3.4943     0.0264 C.ar    
  15 N15            0.0926    -6.6797    -0.0366 N.am    
  16 C16            1.2124    -7.4229    -0.0567 C.2     
  17 C17            0.8603    -8.8941    -0.0707 C.3     
  18 C18           -0.6318    -8.9231    -0.4756 C.3     
  19 C19           -1.1075    -7.5243    -0.0185 C.3     
  20 O20            2.3408    -6.9788    -0.0632 O.2     
  21 C21           -0.7854    -9.0925    -1.9884 C.3     
  22 C22           -1.3817   -10.0250     0.2756 C.3     
  23 F23            2.3646     1.4927    -0.0116 F       
  24 F24           -2.4219     4.1589     0.0408 F       
  25 H25           -2.1103    -2.8415     0.0077 H       
  26 H26            2.1905    -2.7829    -0.0443 H       
  27 H27            2.0816     4.0853     0.0040 H       
  28 H28           -2.1651     1.5646     0.0208 H       
  29 H29           -0.0674     5.2802     0.0301 H       
  30 H30            1.4655    -9.4243    -0.8061 H       
  31 H31            0.9952    -9.3281     0.9200 H       
  32 H32           -1.5236    -7.5775     0.9876 H       
  33 H33           -1.8496    -7.1323    -0.7140 H       
  34 H34           -0.3434   -10.0407    -2.2946 H       
  35 H35           -1.8437    -9.0838    -2.2494 H       
  36 H36           -0.2785    -8.2737    -2.4990 H       
  37 H37           -1.2921    -9.8586     1.3491 H       
  38 H38           -2.4339   -10.0069    -0.0083 H       
  39 H39           -0.9534   -10.9945     0.0211 H       
@<TRIPOS>BOND
   1    1    2 1
   2    1   10 ar
   3    1   12 ar
   4    2    3 3
   5    3    4 1
   6    4    5 ar
   7    4    8 ar
   8    5    9 ar
   9    5   25 1
  10    6    7 ar
  11    6   15 1
  12    6    9 ar
  13    7    8 ar
  14    8   26 1
  15   10   11 ar
  16   10   23 1
  17   11   13 ar
  18   11   27 1
  19   12   14 ar
  20   12   28 1
  21   13   14 ar
  22   13   29 1
  23   14   24 1
  24   15   16 am
  25   15   19 1
  26   16   17 1
  27   16   20 2
  28   17   18 1
  29   17   30 1
  30   17   31 1
  31   18   19 1
  32   18   21 1
  33   18   22 1
  34   19   32 1
  35   19   33 1
  36   21   34 1
  37   21   35 1
  38   21   36 1
  39   22   37 1
  40   22   38 1
  41   22   39 1

#	End of record

