#	Name: ASD03430809
#	Creating user name:	WinNT
#	Creation time:	15. 06. 2019 20:41

#	Modifying user name:	WinNT
#	Modification time:	15. 06. 2019 20:41

#	Program:	/corina/corina34_cracker 3.40 0067  02.08.2006

@<TRIPOS>MOLECULE
ASD03430809
  50   55    0    0    0
SMALL
NO_CHARGES


@<TRIPOS>ATOM
   1 C1            -0.0149     1.4602    -0.0004 C.3     
   2 O2            -0.2488    -4.2194     1.7607 O.3     
   3 C3             1.0975    -4.0412     1.8801 C.ar    
   4 C4             1.4935    -2.8204     1.3398 C.ar    
   5 C5             0.2444    -2.1449     0.8425 C.3     
   6 C6            -0.8791    -2.9484     1.5123 C.3     
   7 O7             4.4771    -5.1680     2.9561 O.3     
   8 C8             3.3963    -4.5065     2.4568 C.ar    
   9 C9             3.7679    -3.2904     1.8959 C.ar    
  10 C10            5.2725    -3.1736     2.0422 C.3     
  11 C11            5.6753    -4.6307     2.3713 C.3     
  12 C12            2.8226    -2.4537     1.3451 C.ar    
  13 C13            2.0568    -4.8764     2.4399 C.ar    
  14 N14            0.0704    -0.0006     0.0701 N.am    
  15 C15            0.1929    -0.6924     1.2204 C.2     
  16 C16            0.1353    -2.1708    -0.6530 C.ar    
  17 C17            0.1210    -3.1807    -1.5884 C.ar    
  18 C18            0.0051    -2.8780    -2.9338 C.ar    
  19 C19           -0.0967    -1.5592    -3.3360 C.ar    
  20 C20           -0.0837    -0.5434    -2.4025 C.ar    
  21 C21            0.0334    -0.8386    -1.0469 C.ar    
  22 O22            0.2503    -0.2321     2.3411 O.2     
  23 C23            1.3589     2.0327    -0.2374 C.2     
  24 C24            2.5075     1.3261    -0.3490 C.2     
  25 N25            3.5117     2.2035    -0.5557 N.pl3   
  26 N26            2.9621     3.4919    -0.5716 N.2     
  27 C27            1.6711     3.3879    -0.3868 C.2     
  28 C28            4.9268     1.8679    -0.7318 C.3     
  29 C29            0.6911     4.5315    -0.3332 C.3     
  30 F30            1.3732     5.7391    -0.5170 F       
  31 F31           -0.2627     4.3761    -1.3448 F       
  32 F32            0.0531     4.5411     0.9118 F       
  33 H33           -0.6741     1.7465    -0.8199 H       
  34 H34           -0.4127     1.8467     0.9379 H       
  35 H35           -1.7281    -3.0626     0.8383 H       
  36 H36           -1.1861    -2.4794     2.4471 H       
  37 H37            5.7302    -2.8441     1.1094 H       
  38 H38            5.5334    -2.5029     2.8607 H       
  39 H39            6.4972    -4.6518     3.0869 H       
  40 H40            5.9385    -5.1730     1.4632 H       
  41 H41            3.1230    -1.5090     0.9164 H       
  42 H42            1.7583    -5.8226     2.8666 H       
  43 H43            0.2007    -4.2102    -1.2720 H       
  44 H44           -0.0061    -3.6702    -3.6677 H       
  45 H45           -0.1872    -1.3230    -4.3860 H       
  46 H46           -0.1632     0.4845    -2.7244 H       
  47 H47            2.6033     0.2523    -0.2840 H       
  48 H48            5.1339     1.7103    -1.7903 H       
  49 H49            5.5434     2.6857    -0.3588 H       
  50 H50            5.1562     0.9579    -0.1773 H       
@<TRIPOS>BOND
   1    1   14 1
   2    1   23 1
   3    1   33 1
   4    1   34 1
   5    2    3 1
   6    2    6 1
   7    3    4 ar
   8    3   13 ar
   9    4    5 1
  10    4   12 ar
  11    5    6 1
  12    5   15 1
  13    5   16 1
  14    6   35 1
  15    6   36 1
  16    7    8 1
  17    7   11 1
  18    8    9 ar
  19    8   13 ar
  20    9   10 1
  21    9   12 ar
  22   10   11 1
  23   10   37 1
  24   10   38 1
  25   11   39 1
  26   11   40 1
  27   12   41 1
  28   13   42 1
  29   14   15 am
  30   14   21 1
  31   15   22 2
  32   16   17 ar
  33   16   21 ar
  34   17   18 ar
  35   17   43 1
  36   18   19 ar
  37   18   44 1
  38   19   20 ar
  39   19   45 1
  40   20   21 ar
  41   20   46 1
  42   23   24 2
  43   23   27 1
  44   24   25 1
  45   24   47 1
  46   25   26 1
  47   25   28 1
  48   26   27 2
  49   27   29 1
  50   28   48 1
  51   28   49 1
  52   28   50 1
  53   29   30 1
  54   29   31 1
  55   29   32 1

#	End of record

