#	Name: ASD01840281
#	Creating user name:	WinNT
#	Creation time:	15. 06. 2019 19:37

#	Modifying user name:	WinNT
#	Modification time:	15. 06. 2019 19:37

#	Program:	/corina/corina34_cracker 3.40 0067  02.08.2006

@<TRIPOS>MOLECULE
ASD01840281
  34   36    0    0    0
SMALL
NO_CHARGES


@<TRIPOS>ATOM
   1 C1             0.5978     0.9895    -0.6779 C.3     
   2 C2             0.5525    -0.4867    -0.3784 C.2     
   3 C3             0.6692    -1.4126    -1.3354 C.2     
   4 S4             0.5754    -3.0264    -0.6529 S.3     
   5 C5             0.3727    -2.3826     0.9736 C.ar    
   6 N6             0.2228    -3.0140     2.1389 N.ar    
   7 C7             0.0829    -2.3660     3.2720 C.ar    
   8 C8            -0.0824    -3.1409     4.5539 C.3     
   9 C9             0.0852    -0.9779     3.3083 C.ar    
  10 Cl10          -0.1003    -0.1429     4.8189 Cl      
  11 C11            0.2361    -0.2685     2.1384 C.ar    
  12 C12            0.2422     1.2384     2.1497 C.3     
  13 C13            0.3909    -0.9817     0.9247 C.ar    
  14 C14            0.8509    -1.1190    -2.7641 C.2     
  15 O15            0.8095     0.0310    -3.1588 O.2     
  16 N16            1.0632    -2.1238    -3.6369 N.am    
  17 C17            1.2443    -1.8312    -5.0609 C.3     
  18 C18            2.3636    -2.5701    -5.7972 C.3     
  19 C19            0.9020    -2.9392    -6.0589 C.3     
  20 H20            1.4400     1.4410    -0.1536 H       
  21 H21            0.7156     1.1390    -1.7512 H       
  22 H22           -0.3295     1.4563    -0.3456 H       
  23 H23            0.8973    -3.3325     4.9915 H       
  24 H24           -0.6858    -2.5621     5.2532 H       
  25 H25           -0.5782    -4.0887     4.3441 H       
  26 H26            1.2713     1.5975     2.1583 H       
  27 H27           -0.2650     1.6104     1.2595 H       
  28 H28           -0.2753     1.5972     3.0393 H       
  29 H29            1.0962    -3.0407    -3.3221 H       
  30 H30            1.0378    -0.8034    -5.3596 H       
  31 H31            2.8938    -2.0284    -6.5805 H       
  32 H32            2.9652    -3.2739    -5.2221 H       
  33 H33            0.5421    -3.8859    -5.6559 H       
  34 H34            0.4707    -2.6404    -7.0143 H       
@<TRIPOS>BOND
   1    1    2 1
   2    1   20 1
   3    1   21 1
   4    1   22 1
   5    2   13 1
   6    2    3 2
   7    3    4 1
   8    3   14 1
   9    4    5 1
  10    5   13 ar
  11    5    6 ar
  12    6    7 ar
  13    7    8 1
  14    7    9 ar
  15    8   23 1
  16    8   24 1
  17    8   25 1
  18    9   10 1
  19    9   11 ar
  20   11   12 1
  21   11   13 ar
  22   12   26 1
  23   12   27 1
  24   12   28 1
  25   14   15 2
  26   14   16 am
  27   16   17 1
  28   16   29 1
  29   17   19 1
  30   17   18 1
  31   17   30 1
  32   18   19 1
  33   18   31 1
  34   18   32 1
  35   19   33 1
  36   19   34 1

#	End of record

