#	Name: ASD01908106
#	Creating user name:	WinNT
#	Creation time:	15. 06. 2019 19:54

#	Modifying user name:	WinNT
#	Modification time:	15. 06. 2019 19:54

#	Program:	/corina/corina34_cracker 3.40 0067  02.08.2006

@<TRIPOS>MOLECULE
ASD01908106
  37   38    0    0    0
SMALL
NO_CHARGES


@<TRIPOS>ATOM
   1 N1            -0.0169     1.3951     0.0097 N.pl3   
   2 N2             0.0021    -0.0041     0.0020 N.2     
   3 C3             1.2418    -0.4097    -0.0120 C.2     
   4 C4             2.0751     0.7313    -0.0138 C.2     
   5 C5             1.2504     1.8383    -0.0000 C.2     
   6 C6             3.5493     0.7384    -0.0274 C.2     
   7 O7             4.1523     1.7944    -0.0271 O.2     
   8 N8             4.2287    -0.4256    -0.0402 N.am    
   9 C9             5.6936    -0.4186    -0.0537 C.3     
  10 C10           -1.2173     2.2349     0.0202 C.3     
  11 C11           -2.1021     1.8610    -1.1410 C.ar    
  12 C12           -3.0663     0.8821    -0.9867 C.ar    
  13 C13           -3.8787     0.5375    -2.0496 C.ar    
  14 C14           -3.7263     1.1746    -3.2726 C.ar    
  15 C15           -2.7581     2.1565    -3.4248 C.ar    
  16 C16           -1.9521     2.5014    -2.3572 C.ar    
  17 O17           -4.5240     0.8371    -4.3199 O.3     
  18 C18           -4.3108     1.5345    -5.5488 C.3     
  19 O19            3.5265    -1.6552    -0.0406 O.3     
  20 C20            3.2262    -2.1527    -1.3461 C.3     
  21 H21            1.5732    -1.4376    -0.0201 H       
  22 H22            1.5666     2.8709     0.0025 H       
  23 H23            6.0664    -0.4226     0.9705 H       
  24 H24            6.0564    -1.3039    -0.5759 H       
  25 H25            6.0479     0.4760    -0.5659 H       
  26 H26           -1.7591     2.0825     0.9537 H       
  27 H27           -0.9286     3.2825    -0.0655 H       
  28 H28           -3.1842     0.3862    -0.0346 H       
  29 H29           -4.6314    -0.2274    -1.9288 H       
  30 H30           -2.6376     2.6538    -4.3758 H       
  31 H31           -1.2014     3.2690    -2.4738 H       
  32 H32           -4.4681     2.6018    -5.3929 H       
  33 H33           -3.2901     1.3638    -5.8911 H       
  34 H34           -5.0116     1.1698    -6.2998 H       
  35 H35            2.6079    -1.4291    -1.8773 H       
  36 H36            4.1535    -2.3116    -1.8965 H       
  37 H37            2.6882    -3.0967    -1.2603 H       
@<TRIPOS>BOND
   1    1    2 1
   2    1    5 1
   3    1   10 1
   4    2    3 2
   5    3    4 1
   6    3   21 1
   7    4    5 2
   8    4    6 1
   9    5   22 1
  10    6    7 2
  11    6    8 am
  12    8    9 1
  13    8   19 1
  14    9   23 1
  15    9   24 1
  16    9   25 1
  17   10   11 1
  18   10   26 1
  19   10   27 1
  20   11   12 ar
  21   11   16 ar
  22   12   13 ar
  23   12   28 1
  24   13   14 ar
  25   13   29 1
  26   14   15 ar
  27   14   17 1
  28   15   16 ar
  29   15   30 1
  30   16   31 1
  31   17   18 1
  32   18   32 1
  33   18   33 1
  34   18   34 1
  35   19   20 1
  36   20   35 1
  37   20   36 1
  38   20   37 1

#	End of record

