#	Name: ASD05170045
#	Creating user name:	WinNT
#	Creation time:	15. 06. 2019 20:57

#	Modifying user name:	WinNT
#	Modification time:	15. 06. 2019 20:57

#	Program:	/corina/corina34_cracker 3.40 0067  02.08.2006

@<TRIPOS>MOLECULE
ASD05170045
  47   51    0    0    0
SMALL
NO_CHARGES


@<TRIPOS>ATOM
   1 C1            -0.0173     1.4248     0.0099 C.3     
   2 O2             0.0021    -0.0041     0.0020 O.3     
   3 C3            -1.2953    -0.6030     0.0112 C.3     
   4 N4            -1.1599    -2.0617     0.0021 N.pl3   
   5 C5             0.0220    -2.7141    -0.0074 C.2     
   6 C6            -0.2596    -4.0456    -0.0129 C.2     
   7 C7            -1.7208    -4.1232    -0.0053 C.2     
   8 N8            -2.1508    -2.8791     0.0076 N.2     
   9 C9            -2.5281    -5.3517    -0.0046 C.2     
  10 O10           -3.5686    -5.3811     0.6238 O.2     
  11 N11           -2.1393    -6.4404    -0.6838 N.am    
  12 C12           -2.9745    -7.6426    -0.6261 C.3     
  13 C13           -0.9160    -6.4731    -1.4787 C.3     
  14 C14           -0.9103    -7.3887    -2.7103 C.3     
  15 C15           -0.9740    -5.8709    -2.8869 C.3     
  16 C16            0.3828    -6.3393    -0.7283 C.ar    
  17 C17            1.2810    -7.3923    -0.7438 C.ar    
  18 C18            2.4757    -7.3025    -0.0590 C.ar    
  19 C19            2.7877    -6.1470     0.6558 C.ar    
  20 C20            1.8916    -5.0829     0.6726 C.ar    
  21 C21            0.6893    -5.1787    -0.0230 C.ar    
  22 C22            4.0704    -6.0522     1.3952 C.ar    
  23 C23            5.0088    -7.0756     1.2832 C.ar    
  24 C24            6.2012    -6.9744     1.9784 C.ar    
  25 C25            6.4164    -5.8496     2.7652 C.ar    
  26 F26            7.5672    -5.7122     3.4593 F       
  27 C27            5.4387    -4.8702     2.8301 C.ar    
  28 N28            4.3154    -4.9911     2.1529 N.ar    
  29 H29            1.0053     1.8021     0.0021 H       
  30 H30           -0.5445     1.7859    -0.8732 H       
  31 H31           -0.5275     1.7763     0.9067 H       
  32 H32           -1.8320    -0.2936     0.9080 H       
  33 H33           -1.8490    -0.2840    -0.8718 H       
  34 H34            1.0041    -2.2649    -0.0103 H       
  35 H35           -3.8430    -7.4517     0.0043 H       
  36 H36           -3.3054    -7.9037    -1.6312 H       
  37 H37           -2.3965    -8.4669    -0.2083 H       
  38 H38            0.0261    -7.8859    -2.9634 H       
  39 H39           -1.8162    -7.9580    -2.9183 H       
  40 H40           -1.9218    -5.4416    -3.2117 H       
  41 H41           -0.0797    -5.3695    -3.2568 H       
  42 H42            1.0452    -8.2904    -1.2954 H       
  43 H43            3.1703    -8.1294    -0.0765 H       
  44 H44            2.1276    -4.1850     1.2244 H       
  45 H45            4.8084    -7.9364     0.6625 H       
  46 H46            6.9474    -7.7523     1.9111 H       
  47 H47            5.6013    -3.9943     3.4406 H       
@<TRIPOS>BOND
   1    1    2 1
   2    1   29 1
   3    1   30 1
   4    1   31 1
   5    2    3 1
   6    3    4 1
   7    3   32 1
   8    3   33 1
   9    4    8 1
  10    4    5 1
  11    5    6 2
  12    5   34 1
  13    6   21 1
  14    6    7 1
  15    7    8 2
  16    7    9 1
  17    9   10 2
  18    9   11 am
  19   11   12 1
  20   11   13 1
  21   12   35 1
  22   12   36 1
  23   12   37 1
  24   13   15 1
  25   13   14 1
  26   13   16 1
  27   14   15 1
  28   14   38 1
  29   14   39 1
  30   15   40 1
  31   15   41 1
  32   16   21 ar
  33   16   17 ar
  34   17   18 ar
  35   17   42 1
  36   18   19 ar
  37   18   43 1
  38   19   20 ar
  39   19   22 1
  40   20   21 ar
  41   20   44 1
  42   22   28 ar
  43   22   23 ar
  44   23   24 ar
  45   23   45 1
  46   24   25 ar
  47   24   46 1
  48   25   26 1
  49   25   27 ar
  50   27   28 ar
  51   27   47 1

#	End of record

