#	Name: ASD03331079
#	Creating user name:	WinNT
#	Creation time:	15. 06. 2019 20:38

#	Modifying user name:	WinNT
#	Modification time:	15. 06. 2019 20:38

#	Program:	/corina/corina34_cracker 3.40 0067  02.08.2006

@<TRIPOS>MOLECULE
ASD03331079
  56   60    0    0    0
SMALL
NO_CHARGES


@<TRIPOS>ATOM
   1 N1             0.0761     0.7375    -0.4168 N.pl3   
   2 C2             0.0123    -0.6154    -0.2939 C.2     
   3 C3             1.1873    -1.5570    -0.3382 C.3     
   4 N4             2.2530    -1.0397     0.5343 N.3     
   5 C5             3.1409    -0.1317    -0.1942 C.3     
   6 C6             2.3697     0.6558    -1.2496 C.3     
   7 C7             1.3038     1.5225    -0.5736 C.3     
   8 C8            -1.2011     1.2140    -0.3546 C.2     
   9 N9            -2.0182     0.2013    -0.1824 N.2     
  10 C10           -1.3000    -0.9426    -0.1378 C.2     
  11 C11           -1.8406    -2.3010     0.0462 C.2     
  12 O12           -1.1021    -3.2645    -0.0271 O.2     
  13 N13           -3.1535    -2.4757     0.2957 N.am    
  14 C14            3.0114    -2.1385     1.1472 C.3     
  15 C15           -3.6717    -3.8143     0.5885 C.3     
  16 C16           -5.1864    -3.9679     0.7402 C.3     
  17 C17           -4.4830    -4.5125    -0.5047 C.3     
  18 C18           -2.7942    -4.6744     1.4611 C.2     
  19 O19           -2.7063    -5.8648     1.2466 O.2     
  20 N20           -2.1073    -4.1207     2.4799 N.am    
  21 C21           -1.1156    -4.5823     3.4629 C.3     
  22 C22           -1.6195    -3.4821     4.4072 C.3     
  23 C23           -2.0146    -2.7874     3.0937 C.3     
  24 F24           -2.7019    -3.8641     5.2071 F       
  25 F25           -0.6073    -2.8275     5.1173 F       
  26 C26           -1.5982     2.6343    -0.4627 C.ar    
  27 C27           -2.6360     3.0091    -1.3206 C.ar    
  28 C28           -3.0028     4.3377    -1.4169 C.ar    
  29 C29           -2.3437     5.2966    -0.6655 C.ar    
  30 C30           -1.3129     4.9294     0.1869 C.ar    
  31 C31           -0.9422     3.6044     0.2957 C.ar    
  32 F32           -2.7058     6.5945    -0.7635 F       
  33 F33           -3.2788     2.0744    -2.0544 F       
  34 Cl34          -0.4917     6.1382     1.1239 Cl      
  35 H35            0.8778    -2.5426     0.0097 H       
  36 H36            1.5572    -1.6301    -1.3609 H       
  37 H37            3.5971     0.5644     0.5097 H       
  38 H38            3.9245    -0.7117    -0.6817 H       
  39 H39            3.0597     1.2945    -1.8011 H       
  40 H40            1.8890    -0.0375    -1.9397 H       
  41 H41            1.1004     2.3976    -1.1908 H       
  42 H42            1.6603     1.8409     0.4059 H       
  43 H43           -3.7553    -1.7150     0.2814 H       
  44 H44            3.3680    -2.8125     0.3683 H       
  45 H45            3.8624    -1.7320     1.6936 H       
  46 H46            2.3664    -2.6862     1.8343 H       
  47 H47           -5.5482    -4.6914     1.4708 H       
  48 H48           -5.7974    -3.0730     0.6220 H       
  49 H49           -4.6313    -3.9759    -1.4418 H       
  50 H50           -4.3822    -5.5942    -0.5930 H       
  51 H51           -1.3057    -5.5906     3.8307 H       
  52 H52           -0.0846    -4.4383     3.1398 H       
  53 H53           -1.2206    -2.1703     2.6732 H       
  54 H54           -2.9706    -2.2666     3.1468 H       
  55 H55           -3.8045     4.6290    -2.0793 H       
  56 H56           -0.1427     3.3195     0.9635 H       
@<TRIPOS>BOND
   1    1    2 1
   2    1    7 1
   3    1    8 1
   4    2    3 1
   5    2   10 2
   6    3    4 1
   7    3   35 1
   8    3   36 1
   9    4    5 1
  10    4   14 1
  11    5    6 1
  12    5   37 1
  13    5   38 1
  14    6    7 1
  15    6   39 1
  16    6   40 1
  17    7   41 1
  18    7   42 1
  19    8    9 2
  20    8   26 1
  21    9   10 1
  22   10   11 1
  23   11   12 2
  24   11   13 am
  25   13   15 1
  26   13   43 1
  27   14   44 1
  28   14   45 1
  29   14   46 1
  30   15   16 1
  31   15   17 1
  32   15   18 1
  33   16   17 1
  34   16   47 1
  35   16   48 1
  36   17   49 1
  37   17   50 1
  38   18   19 2
  39   18   20 am
  40   20   21 1
  41   20   23 1
  42   21   22 1
  43   21   51 1
  44   21   52 1
  45   22   23 1
  46   22   24 1
  47   22   25 1
  48   23   53 1
  49   23   54 1
  50   26   27 ar
  51   26   31 ar
  52   27   28 ar
  53   27   33 1
  54   28   29 ar
  55   28   55 1
  56   29   30 ar
  57   29   32 1
  58   30   31 ar
  59   30   34 1
  60   31   56 1

#	End of record

