#	Name: ASD01914210
#	Creating user name:	WinNT
#	Creation time:	15. 06. 2019 20:03

#	Modifying user name:	WinNT
#	Modification time:	15. 06. 2019 20:03

#	Program:	/corina/corina34_cracker 3.40 0067  02.08.2006

@<TRIPOS>MOLECULE
ASD01914210
  39   41    0    0    0
SMALL
NO_CHARGES


@<TRIPOS>ATOM
   1 C1            -0.0162     1.3422     0.0094 C.2     
   2 N2             0.0021    -0.0041     0.0020 N.am    
   3 C3             1.3298    -0.4249    -0.0129 C.ar    
   4 C4             2.1184     0.7278    -0.0143 C.ar    
   5 N5             1.2452     1.8129    -0.0001 N.am    
   6 C6             3.5002     0.6188    -0.0280 C.ar    
   7 C7             4.0914    -0.6297    -0.0404 C.ar    
   8 C8             3.3099    -1.7720    -0.0391 C.ar    
   9 C9             1.9320    -1.6733    -0.0254 C.ar    
  10 O10           -1.0205     2.0293     0.0181 O.2     
  11 C11            1.6331     3.2256     0.0038 C.3     
  12 C12            1.7826     3.7094     1.4475 C.3     
  13 C13            2.1877     5.1848     1.4516 C.3     
  14 C14            2.3315     5.6504     2.8406 C.1     
  15 C15            2.4461     6.0216     3.9484 C.1     
  16 C16            2.5860     6.4745     5.2997 C.ar    
  17 C17            2.9521     7.7972     5.5523 C.ar    
  18 C18            3.0830     8.2194     6.8632 C.ar    
  19 C19            2.8439     7.3061     7.8809 C.ar    
  20 C20            2.4844     6.0103     7.5595 C.ar    
  21 N21            2.3610     5.6340     6.3030 N.ar    
  22 C22           -1.1741    -0.8775     0.0090 C.3     
  23 H23            4.1133     1.5079    -0.0295 H       
  24 H24            5.1680    -0.7148    -0.0515 H       
  25 H25            3.7793    -2.7446    -0.0488 H       
  26 H26            1.3254    -2.5669    -0.0240 H       
  27 H27            2.5824     3.3431    -0.5189 H       
  28 H28            0.8661     3.8144    -0.4992 H       
  29 H29            0.8333     3.5919     1.9702 H       
  30 H30            2.5496     3.1206     1.9505 H       
  31 H31            3.1370     5.3024     0.9289 H       
  32 H32            1.4207     5.7736     0.9486 H       
  33 H33            3.1309     8.4814     4.7360 H       
  34 H34            3.3654     9.2369     7.0898 H       
  35 H35            2.9382     7.6049     8.9145 H       
  36 H36            2.2982     5.2978     8.3495 H       
  37 H37           -2.0784    -0.2690     0.0208 H       
  38 H38           -1.1681    -1.5021    -0.8842 H       
  39 H39           -1.1509    -1.5111     0.8956 H       
@<TRIPOS>BOND
   1    1    2 am
   2    1    5 am
   3    1   10 2
   4    2    3 1
   5    2   22 1
   6    3    4 ar
   7    3    9 ar
   8    4    5 1
   9    4    6 ar
  10    5   11 1
  11    6    7 ar
  12    6   23 1
  13    7    8 ar
  14    7   24 1
  15    8    9 ar
  16    8   25 1
  17    9   26 1
  18   11   12 1
  19   11   27 1
  20   11   28 1
  21   12   13 1
  22   12   29 1
  23   12   30 1
  24   13   14 1
  25   13   31 1
  26   13   32 1
  27   14   15 3
  28   15   16 1
  29   16   17 ar
  30   16   21 ar
  31   17   18 ar
  32   17   33 1
  33   18   19 ar
  34   18   34 1
  35   19   20 ar
  36   19   35 1
  37   20   21 ar
  38   20   36 1
  39   22   37 1
  40   22   38 1
  41   22   39 1

#	End of record

