#	Name: ASD03332168
#	Creating user name:	WinNT
#	Creation time:	15. 06. 2019 20:40

#	Modifying user name:	WinNT
#	Modification time:	15. 06. 2019 20:40

#	Program:	/corina/corina34_cracker 3.40 0067  02.08.2006

@<TRIPOS>MOLECULE
ASD03332168
  66   68    0    0    0
SMALL
NO_CHARGES


@<TRIPOS>ATOM
   1 C1             0.2081     2.0689    -1.0776 C.2     
   2 N2             0.2850     0.8011    -1.5459 N.pl3   
   3 C3             1.5873     0.4055    -1.4504 C.2     
   4 N4             2.2844     1.3852    -0.9247 N.2     
   5 C5             1.4608     2.4274    -0.6797 C.2     
   6 C6             1.8478     3.7203    -0.0879 C.2     
   7 O7             1.0104     4.5855     0.0837 O.2     
   8 N8             3.1296     3.9440     0.2631 N.am    
   9 C9             3.5144     5.2294     0.8514 C.3     
  10 C10           -0.8426     0.0085    -2.0440 C.3     
  11 C11           -1.6661     0.8607    -3.0145 C.3     
  12 C12           -2.7140     1.6550    -2.2413 C.3     
  13 N13           -2.2123     2.0399    -0.9204 N.3     
  14 C14           -1.0369     2.9164    -1.0300 C.3     
  15 C15            2.1237    -0.9083    -1.8690 C.ar    
  16 C16            3.2607     5.1962     2.3598 C.3     
  17 C17            4.0172     4.0190     2.9785 C.3     
  18 C18            3.7492     6.5030     2.9880 C.3     
  19 C19            1.7621     5.0335     2.6215 C.3     
  20 C20            4.9775     5.4820     0.5935 C.2     
  21 N21            5.4673     6.7357     0.6627 N.am    
  22 O22            5.7142     4.5572     0.3237 O.2     
  23 C23            6.8647     6.9967     0.3087 C.3     
  24 C24            1.3170    -2.0451    -1.8107 C.ar    
  25 C25            1.8232    -3.2674    -2.2025 C.ar    
  26 C26            3.1277    -3.3672    -2.6520 C.ar    
  27 C27            3.9329    -2.2438    -2.7117 C.ar    
  28 C28            3.4365    -1.0146    -2.3291 C.ar    
  29 C29            0.9532    -4.4963    -2.1402 C.3     
  30 F30            0.2758    -4.6502    -3.3546 F       
  31 F31            1.7512    -5.6212    -1.9056 F       
  32 F32            0.0249    -4.3585    -1.1027 F       
  33 C33            5.3530    -2.3617    -3.2022 C.3     
  34 F34            5.6222    -3.6935    -3.5353 F       
  35 F35            5.5247    -1.5545    -4.3318 F       
  36 F36            6.2303    -1.9465    -2.1946 F       
  37 C37           -3.2688     2.6736    -0.1201 C.3     
  38 H38            3.7975     3.2540     0.1263 H       
  39 H39            2.9231     6.0266     0.4009 H       
  40 H40           -0.4669    -0.8737    -2.5624 H       
  41 H41           -1.4696    -0.2991    -1.2070 H       
  42 H42           -1.0060     1.5490    -3.5423 H       
  43 H43           -2.1626     0.2113    -3.7355 H       
  44 H44           -2.9684     2.5537    -2.8033 H       
  45 H45           -3.6087     1.0443    -2.1204 H       
  46 H46           -0.9941     3.5784    -0.1651 H       
  47 H47           -1.1087     3.5100    -1.9413 H       
  48 H48            5.0849     4.1349     2.7920 H       
  49 H49            3.8365     3.9954     4.0531 H       
  50 H50            3.6692     3.0880     2.5310 H       
  51 H51            3.2280     7.3435     2.5297 H       
  52 H52            3.5459     6.4897     4.0588 H       
  53 H53            4.8216     6.6069     2.8230 H       
  54 H54            1.4141     4.1026     2.1740 H       
  55 H55            1.5813     5.0099     3.6962 H       
  56 H56            1.2231     5.8722     2.1808 H       
  57 H57            4.8946     7.4652     0.9469 H       
  58 H58            7.0766     8.0596     0.4252 H       
  59 H59            7.5191     6.4218     0.9640 H       
  60 H60            7.0382     6.7030    -0.7266 H       
  61 H61            0.2986    -1.9685    -1.4594 H       
  62 H62            3.5194    -4.3263    -2.9572 H       
  63 H63            4.0659    -0.1382    -2.3765 H       
  64 H64           -4.0949     1.9745     0.0098 H       
  65 H65           -2.8693     2.9494     0.8558 H       
  66 H66           -3.6260     3.5670    -0.6323 H       
@<TRIPOS>BOND
   1    1    2 1
   2    1    5 2
   3    1   14 1
   4    2    3 1
   5    2   10 1
   6    3    4 2
   7    3   15 1
   8    4    5 1
   9    5    6 1
  10    6    7 2
  11    6    8 am
  12    8    9 1
  13    8   38 1
  14    9   16 1
  15    9   20 1
  16    9   39 1
  17   10   11 1
  18   10   40 1
  19   10   41 1
  20   11   12 1
  21   11   42 1
  22   11   43 1
  23   12   13 1
  24   12   44 1
  25   12   45 1
  26   13   14 1
  27   13   37 1
  28   14   46 1
  29   14   47 1
  30   15   24 ar
  31   15   28 ar
  32   16   17 1
  33   16   18 1
  34   16   19 1
  35   17   48 1
  36   17   49 1
  37   17   50 1
  38   18   51 1
  39   18   52 1
  40   18   53 1
  41   19   54 1
  42   19   55 1
  43   19   56 1
  44   20   21 am
  45   20   22 2
  46   21   23 1
  47   21   57 1
  48   23   58 1
  49   23   59 1
  50   23   60 1
  51   24   25 ar
  52   24   61 1
  53   25   26 ar
  54   25   29 1
  55   26   27 ar
  56   26   62 1
  57   27   28 ar
  58   27   33 1
  59   28   63 1
  60   29   30 1
  61   29   31 1
  62   29   32 1
  63   33   34 1
  64   33   35 1
  65   33   36 1
  66   37   64 1
  67   37   65 1
  68   37   66 1

#	End of record

