#	Name: ASD01150662
#	Creating user name:	WinNT
#	Creation time:	15. 06. 2019 19:04

#	Modifying user name:	WinNT
#	Modification time:	15. 06. 2019 19:04

#	Program:	/corina/corina34_cracker 3.40 0067  02.08.2006

@<TRIPOS>MOLECULE
ASD01150662
  56   58    0    0    0
SMALL
NO_CHARGES


@<TRIPOS>ATOM
   1 C1             1.9759     1.5399     1.0215 C.ar    
   2 C2             1.9399     0.1678     1.1763 C.ar    
   3 C3             0.6643    -0.0311    -0.8477 C.ar    
   4 C4             0.6980     1.3470    -1.0060 C.ar    
   5 C5             1.3547     2.1339    -0.0706 C.ar    
   6 N6             1.3911     3.5240    -0.2265 N.am    
   7 C7             0.2526     4.1922    -0.4821 C.2     
   8 N8             0.2510     5.5293    -0.6373 N.am    
   9 C9             1.4041     6.2226    -0.5373 C.2     
  10 C10            2.6529     5.4975    -0.2578 C.2     
  11 N11            2.6114     4.1998    -0.1084 N.2     
  12 O12            1.4109     7.4315    -0.6767 O.2     
  13 C13           -1.0038     6.2322    -0.9157 C.3     
  14 O14           -0.7930     3.5782    -0.5750 O.2     
  15 C15           -1.6528     6.6349     0.3834 C.ar    
  16 O16            3.8303     6.1669    -0.1517 O.3     
  17 C17            4.9969     5.3881     0.1212 C.3     
  18 C18            1.2867    -0.6186     0.2464 C.ar    
  19 N19            0.0035    -0.8283    -1.7889 N.am    
  20 C20            0.4935    -2.0431    -2.1059 C.2     
  21 O21            1.4539    -2.4838    -1.5106 O.2     
  22 C22           -0.1517    -2.8538    -3.2002 C.3     
  23 C23           -1.3606     7.8612     0.9508 C.ar    
  24 C24           -1.9555     8.2310     2.1423 C.ar    
  25 C25           -2.8437     7.3737     2.7671 C.ar    
  26 C26           -3.1358     6.1466     2.1987 C.ar    
  27 C27           -2.5445     5.7802     1.0044 C.ar    
  28 Cl28          -3.5909     7.8374     4.2639 Cl      
  29 C29            6.2164     6.3084     0.2048 C.3     
  30 N30            6.0761     7.2033     1.3613 N.3     
  31 C31            6.3493     6.4892     2.6156 C.3     
  32 C32            6.9454     8.3796     1.2251 C.3     
  33 H33            2.4834     2.1520     1.7523 H       
  34 H34            2.4237    -0.2915     2.0256 H       
  35 H35            0.2145     1.8061    -1.8556 H       
  36 H36           -0.7975     7.1223    -1.5100 H       
  37 H37           -1.6743     5.5739    -1.4680 H       
  38 H38            4.8710     4.8648     1.0691 H       
  39 H39            5.1440     4.6617    -0.6781 H       
  40 H40            1.2604    -1.6911     0.3703 H       
  41 H41           -0.8073    -0.5065    -2.2132 H       
  42 H42           -0.9929    -2.2988    -3.6157 H       
  43 H43            0.5780    -3.0496    -3.9858 H       
  44 H44           -0.5071    -3.7993    -2.7905 H       
  45 H45           -0.6670     8.5301     0.4632 H       
  46 H46           -1.7269     9.1889     2.5856 H       
  47 H47           -3.8290     5.4770     2.6860 H       
  48 H48           -2.7724     4.8224     0.5606 H       
  49 H49            7.1184     5.7070     0.3180 H       
  50 H50            6.2872     6.9014    -0.7070 H       
  51 H51            7.3667     6.0986     2.5973 H       
  52 H52            6.2384     7.1749     3.4556 H       
  53 H53            5.6453     5.6642     2.7247 H       
  54 H54            6.7329     8.8811     0.2810 H       
  55 H55            6.7597     9.0662     2.0511 H       
  56 H56            7.9887     8.0643     1.2423 H       
@<TRIPOS>BOND
   1    1    2 ar
   2    1    5 ar
   3    1   33 1
   4    2   18 ar
   5    2   34 1
   6    3    4 ar
   7    3   19 1
   8    3   18 ar
   9    4    5 ar
  10    4   35 1
  11    5    6 1
  12    6    7 am
  13    6   11 1
  14    7    8 am
  15    7   14 2
  16    8    9 am
  17    8   13 1
  18    9   10 1
  19    9   12 2
  20   10   11 2
  21   10   16 1
  22   13   15 1
  23   13   36 1
  24   13   37 1
  25   15   23 ar
  26   15   27 ar
  27   16   17 1
  28   17   29 1
  29   17   38 1
  30   17   39 1
  31   18   40 1
  32   19   20 am
  33   19   41 1
  34   20   21 2
  35   20   22 1
  36   22   42 1
  37   22   43 1
  38   22   44 1
  39   23   24 ar
  40   23   45 1
  41   24   25 ar
  42   24   46 1
  43   25   26 ar
  44   25   28 1
  45   26   27 ar
  46   26   47 1
  47   27   48 1
  48   29   30 1
  49   29   49 1
  50   29   50 1
  51   30   31 1
  52   30   32 1
  53   31   51 1
  54   31   52 1
  55   31   53 1
  56   32   54 1
  57   32   55 1
  58   32   56 1

#	End of record

