#	Name: ASD01911666
#	Creating user name:	WinNT
#	Creation time:	15. 06. 2019 19:58

#	Modifying user name:	WinNT
#	Modification time:	15. 06. 2019 19:58

#	Program:	/corina/corina34_cracker 3.40 0067  02.08.2006

@<TRIPOS>MOLECULE
ASD01911666
  43   45    0    0    0
SMALL
NO_CHARGES


@<TRIPOS>ATOM
   1 N1            -0.0204     1.2502     0.4948 N.am    
   2 C2             0.0021    -0.0041     0.0020 C.2     
   3 C3             1.2748    -0.7187    -0.1246 C.2     
   4 C4             1.4470    -2.0747    -0.0500 C.2     
   5 S5             2.8518     0.0159    -0.4072 S.3     
   6 C6             3.5963    -1.5802    -0.3909 C.2     
   7 N7             2.6740    -2.4890    -0.1928 N.2     
   8 C8             4.9923    -1.8438    -0.5711 C.1     
   9 C9             6.1367    -2.0599    -0.7188 C.1     
  10 C10            7.5327    -2.3234    -0.8990 C.ar    
  11 C11            8.0097    -3.6374    -0.8661 C.ar    
  12 C12            9.3552    -3.8832    -1.0409 C.ar    
  13 C13           10.2329    -2.8333    -1.2481 C.ar    
  14 C14            9.7684    -1.5301    -1.2820 C.ar    
  15 C15            8.4248    -1.2686    -1.1146 C.ar    
  16 O16           -1.0350    -0.5431    -0.3378 O.2     
  17 C17           -1.2663     2.0289     0.5035 C.3     
  18 C18            1.1993     1.8626     1.0390 C.3     
  19 C19            0.9080     2.3663     2.4561 C.3     
  20 C20           -0.3033     3.3010     2.4220 C.3     
  21 C21           -1.5243     2.5304     1.9278 C.3     
  22 C22           -2.7257     3.4401     1.9240 C.2     
  23 O23           -2.6146     4.5891     2.2810 O.2     
  24 O24           -3.9193     2.9741     1.5240 O.3     
  25 C25           -5.0322     3.9064     1.5464 C.3     
  26 H26            0.6236    -2.7534     0.1160 H       
  27 H27            7.3261    -4.4576    -0.7038 H       
  28 H28            9.7252    -4.8975    -1.0157 H       
  29 H29           11.2857    -3.0321    -1.3836 H       
  30 H30           10.4595    -0.7160    -1.4437 H       
  31 H31            8.0638    -0.2511    -1.1412 H       
  32 H32           -1.1704     2.8793    -0.1716 H       
  33 H33           -2.0944     1.3968     0.1829 H       
  34 H34            1.9973     1.1209     1.0717 H       
  35 H35            1.5007     2.6992     0.4086 H       
  36 H36            0.6950     1.5184     3.1070 H       
  37 H37            1.7748     2.9078     2.8351 H       
  38 H38           -0.4977     3.6803     3.4252 H       
  39 H39           -0.0990     4.1359     1.7517 H       
  40 H40           -1.7112     1.6830     2.5874 H       
  41 H41           -5.1843     4.2662     2.5640 H       
  42 H42           -4.8128     4.7499     0.8918 H       
  43 H43           -5.9349     3.4031     1.2003 H       
@<TRIPOS>BOND
   1    1    2 am
   2    1   18 1
   3    1   17 1
   4    2    3 1
   5    2   16 2
   6    3    4 2
   7    3    5 1
   8    4    7 1
   9    4   26 1
  10    5    6 1
  11    6    7 2
  12    6    8 1
  13    8    9 3
  14    9   10 1
  15   10   11 ar
  16   10   15 ar
  17   11   12 ar
  18   11   27 1
  19   12   13 ar
  20   12   28 1
  21   13   14 ar
  22   13   29 1
  23   14   15 ar
  24   14   30 1
  25   15   31 1
  26   17   21 1
  27   17   32 1
  28   17   33 1
  29   18   19 1
  30   18   34 1
  31   18   35 1
  32   19   20 1
  33   19   36 1
  34   19   37 1
  35   20   21 1
  36   20   38 1
  37   20   39 1
  38   21   22 1
  39   21   40 1
  40   22   23 2
  41   22   24 1
  42   24   25 1
  43   25   41 1
  44   25   42 1
  45   25   43 1

#	End of record

