#	Name: ASD01882315
#	Creating user name:	WinNT
#	Creation time:	15. 06. 2019 19:44

#	Modifying user name:	WinNT
#	Modification time:	15. 06. 2019 19:44

#	Program:	/corina/corina34_cracker 3.40 0067  02.08.2006

@<TRIPOS>MOLECULE
ASD01882315
  56   60    0    0    0
SMALL
NO_CHARGES


@<TRIPOS>ATOM
   1 N1            -0.9974     2.2091    -0.1945 N.3     
   2 C2            -0.4848     0.8370    -0.0814 C.3     
   3 C3            -1.6409    -0.1281    -0.0262 C.2     
   4 C4            -2.2883    -0.3843     1.1947 C.2     
   5 C5            -3.3238    -1.2480     1.2497 C.2     
   6 N6            -3.7562    -1.8832     0.1230 N.pl3   
   7 C7            -3.1438    -1.6529    -1.0845 C.2     
   8 C8            -2.0654    -0.7504    -1.1588 C.2     
   9 C9            -4.7470    -2.7815    -0.1273 C.2     
  10 N10           -4.7137    -3.0581    -1.4054 N.2     
  11 N11           -3.7710    -2.3974    -1.9805 N.2     
  12 C12           -1.3823    -0.4856    -2.4757 C.3     
  13 F13           -0.1781    -1.1957    -2.5276 F       
  14 F14           -2.2127    -0.8987    -3.5231 F       
  15 F15           -1.1221     0.8834    -2.5991 F       
  16 C16           -5.7073    -3.3537     0.8834 C.3     
  17 C17           -6.9492    -2.4641     0.9677 C.3     
  18 C18           -8.0998    -2.9397     1.8569 C.3     
  19 C19           -7.2272    -1.7633     2.2990 C.3     
  20 C20            0.1040     3.1795    -0.2510 C.3     
  21 C21            0.5484     3.5336     1.1715 C.3     
  22 C22           -0.6123     4.2081     1.9074 C.3     
  23 O23           -1.0254     5.3676     1.1813 O.3     
  24 C24           -1.4960     5.0919    -0.1395 C.3     
  25 C25           -0.3707     4.4529    -0.9576 C.3     
  26 C26           -1.9283     6.3769    -0.7974 C.ar    
  27 C27           -3.0659     6.4029    -1.5823 C.ar    
  28 C28           -3.4625     7.5817    -2.1858 C.ar    
  29 C29           -2.7216     8.7345    -2.0040 C.ar    
  30 C30           -1.5845     8.7087    -1.2184 C.ar    
  31 C31           -1.1904     7.5310    -0.6114 C.ar    
  32 H32           -1.6040     2.3036    -0.9952 H       
  33 H33            0.1377     0.6092    -0.9467 H       
  34 H34            0.1092     0.7449     0.8279 H       
  35 H35           -1.9551     0.1126     2.0938 H       
  36 H36           -3.8135    -1.4380     2.1934 H       
  37 H37           -6.0000    -4.3584     0.5783 H       
  38 H38           -5.2243    -3.3968     1.8596 H       
  39 H39           -7.2073    -1.9294     0.0536 H       
  40 H40           -9.1150    -2.7176     1.5280 H       
  41 H41           -7.9721    -3.8864     2.3818 H       
  42 H42           -6.5253    -1.9361     3.1149 H       
  43 H43           -7.6682    -0.7673     2.2610 H       
  44 H44            0.9423     2.7482    -0.7981 H       
  45 H45            0.8359     2.6248     1.7002 H       
  46 H46            1.3978     4.2153     1.1287 H       
  47 H47           -1.4471     3.5115     1.9854 H       
  48 H48           -0.2884     4.5009     2.9061 H       
  49 H49           -2.3423     4.4069    -0.0883 H       
  50 H50            0.4601     5.1532    -1.0435 H       
  51 H51           -0.7406     4.2015    -1.9517 H       
  52 H52           -3.6447     5.5022    -1.7243 H       
  53 H53           -4.3509     7.6018    -2.7995 H       
  54 H54           -3.0310     9.6553    -2.4761 H       
  55 H55           -1.0055     9.6093    -1.0767 H       
  56 H56           -0.3019     7.5108     0.0023 H       
@<TRIPOS>BOND
   1    1    2 1
   2    1   20 1
   3    1   32 1
   4    2    3 1
   5    2   33 1
   6    2   34 1
   7    3    4 1
   8    3    8 2
   9    4    5 2
  10    4   35 1
  11    5    6 1
  12    5   36 1
  13    6    7 1
  14    6    9 1
  15    7    8 1
  16    7   11 2
  17    8   12 1
  18    9   10 2
  19    9   16 1
  20   10   11 1
  21   12   13 1
  22   12   14 1
  23   12   15 1
  24   16   17 1
  25   16   37 1
  26   16   38 1
  27   17   18 1
  28   17   19 1
  29   17   39 1
  30   18   19 1
  31   18   40 1
  32   18   41 1
  33   19   42 1
  34   19   43 1
  35   20   21 1
  36   20   25 1
  37   20   44 1
  38   21   22 1
  39   21   45 1
  40   21   46 1
  41   22   23 1
  42   22   47 1
  43   22   48 1
  44   23   24 1
  45   24   25 1
  46   24   26 1
  47   24   49 1
  48   25   50 1
  49   25   51 1
  50   26   27 ar
  51   26   31 ar
  52   27   28 ar
  53   27   52 1
  54   28   29 ar
  55   28   53 1
  56   29   30 ar
  57   29   54 1
  58   30   31 ar
  59   30   55 1
  60   31   56 1

#	End of record

