#	Name: ASD01911724
#	Creating user name:	WinNT
#	Creation time:	15. 06. 2019 19:58

#	Modifying user name:	WinNT
#	Modification time:	15. 06. 2019 19:58

#	Program:	/corina/corina34_cracker 3.40 0067  02.08.2006

@<TRIPOS>MOLECULE
ASD01911724
  37   39    0    0    0
SMALL
NO_CHARGES


@<TRIPOS>ATOM
   1 N1             0.0318     1.1533    -0.6880 N.am    
   2 C2             0.0021    -0.0041     0.0020 C.2     
   3 C3            -1.2503    -0.7541     0.1205 C.2     
   4 C4            -1.3856    -2.1132     0.0310 C.2     
   5 S5            -2.8466    -0.0656     0.4110 S.3     
   6 C6            -3.5478    -1.6808     0.3766 C.2     
   7 N7            -2.6009    -2.5624     0.1687 N.2     
   8 C8            -4.9361    -1.9840     0.5538 C.1     
   9 C9            -6.0742    -2.2326     0.6991 C.1     
  10 C10           -7.4625    -2.5358     0.8763 C.ar    
  11 C11           -7.9045    -3.8645     0.8283 C.ar    
  12 C12           -9.2448    -4.1484     1.0006 C.ar    
  13 C13          -10.1503    -3.1224     1.2199 C.ar    
  14 C14           -9.7182    -1.8056     1.2683 C.ar    
  15 C15           -8.3827    -1.5077     1.1038 C.ar    
  16 O16            1.0161    -0.4260     0.5268 O.2     
  17 C17           -1.1494     1.6118    -1.4319 C.3     
  18 C18           -1.4875     3.0388    -0.9892 C.3     
  19 C19           -0.2533     3.9275    -1.1596 C.3     
  20 C20            0.8807     3.4035    -0.2756 C.3     
  21 C21            1.2439     1.9834    -0.7057 C.3     
  22 F22           -7.0222    -4.8648     0.6137 F       
  23 F23          -11.4605    -3.4065     1.3869 F       
  24 H24           -0.5440    -2.7675    -0.1421 H       
  25 H25           -9.5881    -5.1717     0.9641 H       
  26 H26          -10.4299    -1.0114     1.4392 H       
  27 H27           -8.0487    -0.4813     1.1420 H       
  28 H28           -0.9347     1.6020    -2.5005 H       
  29 H29           -1.9925     0.9541    -1.2203 H       
  30 H30           -2.3021     3.4262    -1.6011 H       
  31 H31           -1.7897     3.0329     0.0581 H       
  32 H32            0.0631     3.9134    -2.2026 H       
  33 H33           -0.4983     4.9490    -0.8685 H       
  34 H34            1.7518     4.0504    -0.3797 H       
  35 H35            0.5563     3.3941     0.7649 H       
  36 H36            1.9812     1.5704    -0.0172 H       
  37 H37            1.6536     2.0009    -1.7156 H       
@<TRIPOS>BOND
   1    1    2 am
   2    1   17 1
   3    1   21 1
   4    2    3 1
   5    2   16 2
   6    3    4 2
   7    3    5 1
   8    4    7 1
   9    4   24 1
  10    5    6 1
  11    6    7 2
  12    6    8 1
  13    8    9 3
  14    9   10 1
  15   10   11 ar
  16   10   15 ar
  17   11   12 ar
  18   11   22 1
  19   12   13 ar
  20   12   25 1
  21   13   14 ar
  22   13   23 1
  23   14   15 ar
  24   14   26 1
  25   15   27 1
  26   17   18 1
  27   17   28 1
  28   17   29 1
  29   18   19 1
  30   18   30 1
  31   18   31 1
  32   19   20 1
  33   19   32 1
  34   19   33 1
  35   20   21 1
  36   20   34 1
  37   20   35 1
  38   21   36 1
  39   21   37 1

#	End of record

