#	Name: ASD01915292
#	Creating user name:	WinNT
#	Creation time:	15. 06. 2019 20:05

#	Modifying user name:	WinNT
#	Modification time:	15. 06. 2019 20:05

#	Program:	/corina/corina34_cracker 3.40 0067  02.08.2006

@<TRIPOS>MOLECULE
ASD01915292
  47   49    0    0    0
SMALL
NO_CHARGES


@<TRIPOS>ATOM
   1 C1            -0.1091     1.6655     0.0068 C.2     
   2 C2            -0.1762     0.1615     0.0740 C.3     
   3 N3             1.0867     2.2871     0.0010 N.am    
   4 O4            -1.1312     2.3162    -0.0470 O.2     
   5 O5            -1.5431    -0.2552     0.0673 O.3     
   6 C6            -1.7191    -1.6720     0.1284 C.3     
   7 C7            -3.1908    -1.9963     0.1156 C.ar    
   8 C8            -3.8433    -2.1994    -1.0860 C.ar    
   9 C9            -5.1932    -2.4969    -1.0977 C.ar    
  10 C10           -5.8905    -2.5917     0.0921 C.ar    
  11 C11           -5.2378    -2.3894     1.2937 C.ar    
  12 C12           -3.8869    -2.0963     1.3057 C.ar    
  13 C13            1.1747     3.7539    -0.0641 C.3     
  14 C14            2.0916     4.2370     1.0646 C.3     
  15 N15            3.3784     3.5332     0.9810 N.3     
  16 C16            3.2094     2.0881     1.1832 C.3     
  17 C17            2.3381     1.5171     0.0656 C.3     
  18 C18            4.2979     4.0617     1.8899 C.ar    
  19 C19            5.4453     4.6952     1.4303 C.ar    
  20 C20            6.3526     5.2167     2.3319 C.ar    
  21 C21            6.1196     5.1085     3.6905 C.ar    
  22 C22            4.9781     4.4782     4.1515 C.ar    
  23 C23            4.0641     3.9598     3.2556 C.ar    
  24 N24            5.6957     4.8110    -0.0237 N.pl3   
  25 O25            6.6500     5.4507    -0.4283 O.2     
  26 O26            4.9475     4.2667    -0.8158 O.2     
  27 H27            0.3375    -0.2640    -0.7881 H       
  28 H28            0.3042    -0.1831     0.9897 H       
  29 H29           -1.2374    -2.1355    -0.7325 H       
  30 H30           -1.2707    -2.0546     1.0453 H       
  31 H31           -3.2986    -2.1254    -2.0156 H       
  32 H32           -5.7032    -2.6549    -2.0366 H       
  33 H33           -6.9453    -2.8234     0.0829 H       
  34 H34           -5.7826    -2.4632     2.2233 H       
  35 H35           -3.3769    -1.9383     2.2445 H       
  36 H36            1.5895     4.0535    -1.0265 H       
  37 H37            0.1818     4.1861     0.0604 H       
  38 H38            2.2567     5.3098     0.9651 H       
  39 H39            1.6247     4.0282     2.0272 H       
  40 H40            4.1851     1.6024     1.1697 H       
  41 H41            2.7269     1.9092     2.1441 H       
  42 H42            2.1156     0.4705     0.2732 H       
  43 H43            2.8623     1.6011    -0.8864 H       
  44 H44            7.2451     5.7091     1.9752 H       
  45 H45            6.8308     5.5168     4.3932 H       
  46 H46            4.7993     4.3951     5.2134 H       
  47 H47            3.1729     3.4677     3.6163 H       
@<TRIPOS>BOND
   1    1    2 1
   2    1    3 am
   3    1    4 2
   4    2    5 1
   5    2   27 1
   6    2   28 1
   7    3   13 1
   8    3   17 1
   9    5    6 1
  10    6    7 1
  11    6   29 1
  12    6   30 1
  13    7    8 ar
  14    7   12 ar
  15    8    9 ar
  16    8   31 1
  17    9   10 ar
  18    9   32 1
  19   10   11 ar
  20   10   33 1
  21   11   12 ar
  22   11   34 1
  23   12   35 1
  24   13   14 1
  25   13   36 1
  26   13   37 1
  27   14   15 1
  28   14   38 1
  29   14   39 1
  30   15   16 1
  31   15   18 1
  32   16   17 1
  33   16   40 1
  34   16   41 1
  35   17   42 1
  36   17   43 1
  37   18   19 ar
  38   18   23 ar
  39   19   20 ar
  40   19   24 1
  41   20   21 ar
  42   20   44 1
  43   21   22 ar
  44   21   45 1
  45   22   23 ar
  46   22   46 1
  47   23   47 1
  48   24   25 2
  49   24   26 2

#	End of record

