#	Name: ASD02198275
#	Creating user name:	WinNT
#	Creation time:	15. 06. 2019 20:19

#	Modifying user name:	WinNT
#	Modification time:	15. 06. 2019 20:19

#	Program:	/corina/corina34_cracker 3.40 0067  02.08.2006

@<TRIPOS>MOLECULE
ASD02198275
  43   45    0    0    0
SMALL
NO_CHARGES


@<TRIPOS>ATOM
   1 C1             0.0017     1.4005     0.2384 C.2     
   2 C2             0.0125     0.0162     0.2370 C.2     
   3 S3             1.6712     1.9486     0.1113 S.3     
   4 C4             2.2171     0.3301     0.0689 C.2     
   5 N5             1.2156    -0.4991     0.1450 N.2     
   6 N6            -1.1370    -0.7516     0.3244 N.pl3   
   7 C7            -1.1382     2.2220     0.3205 C.2     
   8 O8            -2.2474     1.7202     0.3998 O.2     
   9 C9            -0.9917     3.6907     0.3107 C.2     
  10 N10            3.5370    -0.0465    -0.0327 N.pl3   
  11 C11            3.8884    -1.3983     0.0625 C.ar    
  12 C12            4.9927    -1.8794    -0.6289 C.ar    
  13 C13            5.3386    -3.2128    -0.5345 C.ar    
  14 C14            4.5833    -4.0720     0.2502 C.ar    
  15 C15            3.4801    -3.5922     0.9410 C.ar    
  16 C16            3.1364    -2.2577     0.8527 C.ar    
  17 C17           -1.9966     4.6153     0.3832 C.2     
  18 C18           -1.3150     5.8610     0.3354 C.2     
  19 N19           -0.0386     5.5788     0.2440 N.2     
  20 O20            0.1579     4.3862     0.2345 O.3     
  21 C21           -1.9259     7.2109     0.3801 C.2     
  22 O22           -3.1312     7.3292     0.4663 O.2     
  23 O23           -1.1442     8.3058     0.3250 O.3     
  24 C24           -1.8108     9.5949     0.3736 C.3     
  25 C25           -0.7676    10.7116     0.2999 C.3     
  26 O26            4.9241    -5.3852     0.3418 O.3     
  27 C27            4.1022    -6.2126     1.1675 C.3     
  28 H28           -2.0038    -0.3212     0.3907 H       
  29 H29           -1.0753    -1.7196     0.3193 H       
  30 H30            4.2237     0.6246    -0.1702 H       
  31 H31            5.5805    -1.2108    -1.2404 H       
  32 H32            6.1973    -3.5871    -1.0720 H       
  33 H33            2.8923    -4.2618     1.5514 H       
  34 H34            2.2777    -1.8843     1.3909 H       
  35 H35           -3.0596     4.4398     0.4587 H       
  36 H36           -2.4960     9.6816    -0.4696 H       
  37 H37           -2.3692     9.6802     1.3058 H       
  38 H38           -0.0823    10.6249     1.1432 H       
  39 H39           -0.2092    10.6263    -0.6323 H       
  40 H40           -1.2680    11.6793     0.3364 H       
  41 H41            4.1164    -5.8343     2.1896 H       
  42 H42            3.0797    -6.2011     0.7900 H       
  43 H43            4.4835    -7.2337     1.1526 H       
@<TRIPOS>BOND
   1    1    2 2
   2    1    3 1
   3    1    7 1
   4    2    6 1
   5    2    5 1
   6    3    4 1
   7    4    5 2
   8    4   10 1
   9    6   28 1
  10    6   29 1
  11    7    8 2
  12    7    9 1
  13    9   17 2
  14    9   20 1
  15   10   11 1
  16   10   30 1
  17   11   12 ar
  18   11   16 ar
  19   12   13 ar
  20   12   31 1
  21   13   14 ar
  22   13   32 1
  23   14   15 ar
  24   14   26 1
  25   15   16 ar
  26   15   33 1
  27   16   34 1
  28   17   18 1
  29   17   35 1
  30   18   19 2
  31   18   21 1
  32   19   20 1
  33   21   22 2
  34   21   23 1
  35   23   24 1
  36   24   25 1
  37   24   36 1
  38   24   37 1
  39   25   38 1
  40   25   39 1
  41   25   40 1
  42   26   27 1
  43   27   41 1
  44   27   42 1
  45   27   43 1

#	End of record

