#	Name: ASD01881917
#	Creating user name:	WinNT
#	Creation time:	15. 06. 2019 19:43

#	Modifying user name:	WinNT
#	Modification time:	15. 06. 2019 19:43

#	Program:	/corina/corina34_cracker 3.40 0067  02.08.2006

@<TRIPOS>MOLECULE
ASD01881917
  49   52    0    0    0
SMALL
NO_CHARGES


@<TRIPOS>ATOM
   1 N1             0.2744     2.8302     0.8147 N.pl3   
   2 N2             0.0655     1.5809     1.0489 N.2     
   3 N3             1.1585     0.9023     1.0284 N.2     
   4 C4             2.1900     1.7294     0.7641 C.ar    
   5 C5             1.6227     3.0097     0.6198 C.ar    
   6 C6             3.5708     1.5674     0.6226 C.ar    
   7 C7             4.3587     2.6664     0.3431 C.ar    
   8 C8             3.7853     3.9280     0.2027 C.ar    
   9 C9             2.4359     4.0997     0.3379 C.ar    
  10 O10            5.7031     2.5162     0.2045 O.3     
  11 C11            6.4610     3.6928    -0.0843 C.3     
  12 C12            7.9423     3.3287    -0.2038 C.3     
  13 N13            8.1456     2.4878    -1.3910 N.3     
  14 C14            7.4803     1.1879    -1.2354 C.3     
  15 C15            7.8329     0.2877    -2.4217 C.3     
  16 C16            7.3800     0.9617    -3.7198 C.3     
  17 C17            8.0498     2.3339    -3.8339 C.3     
  18 C18            7.6909     3.1748    -2.6066 C.3     
  19 C19            7.9491     0.5275     0.0627 C.3     
  20 F20            7.4905     1.2704     1.1559 F       
  21 F21            7.4382    -0.7728     0.1353 F       
  22 F22            9.3471     0.4812     0.0839 F       
  23 C23           -0.7489     3.8772     0.7596 C.3     
  24 C24           -0.9383     4.4791     2.1534 C.3     
  25 C25           -1.8847     5.6741     2.2842 C.3     
  26 C26           -2.3048     4.3036     2.8190 C.3     
  27 Br27           4.3542    -0.1432     0.8130 Br      
  28 H28            4.4131     4.7792    -0.0156 H       
  29 H29            2.0025     5.0826     0.2266 H       
  30 H30            6.1163     4.1256    -1.0234 H       
  31 H31            6.3285     4.4168     0.7197 H       
  32 H32            8.5338     4.2394    -0.2980 H       
  33 H33            8.2551     2.7826     0.6862 H       
  34 H34            6.4008     1.3345    -1.1989 H       
  35 H35            8.9109     0.1295    -2.4507 H       
  36 H36            7.3264    -0.6715    -2.3138 H       
  37 H37            7.6679     0.3440    -4.5706 H       
  38 H38            6.2970     1.0848    -3.7078 H       
  39 H39            9.1312     2.2078    -3.8851 H       
  40 H40            7.6983     2.8366    -4.7349 H       
  41 H41            6.6105     3.3120    -2.5637 H       
  42 H42            8.1779     4.1474    -2.6778 H       
  43 H43           -0.4336     4.6573     0.0667 H       
  44 H44           -1.6906     3.4472     0.4185 H       
  45 H45           -0.0587     4.4609     2.7969 H       
  46 H46           -1.6279     6.4420     3.0139 H       
  47 H47           -2.3724     6.0315     1.3772 H       
  48 H48           -3.0688     3.7593     2.2638 H       
  49 H49           -2.3243     4.1698     3.9005 H       
@<TRIPOS>BOND
   1    1    2 1
   2    1    5 1
   3    1   23 1
   4    2    3 2
   5    3    4 1
   6    4    5 ar
   7    4    6 ar
   8    5    9 ar
   9    6    7 ar
  10    6   27 1
  11    7    8 ar
  12    7   10 1
  13    8    9 ar
  14    8   28 1
  15    9   29 1
  16   10   11 1
  17   11   12 1
  18   11   30 1
  19   11   31 1
  20   12   13 1
  21   12   32 1
  22   12   33 1
  23   13   14 1
  24   13   18 1
  25   14   15 1
  26   14   19 1
  27   14   34 1
  28   15   16 1
  29   15   35 1
  30   15   36 1
  31   16   17 1
  32   16   37 1
  33   16   38 1
  34   17   18 1
  35   17   39 1
  36   17   40 1
  37   18   41 1
  38   18   42 1
  39   19   20 1
  40   19   21 1
  41   19   22 1
  42   23   24 1
  43   23   43 1
  44   23   44 1
  45   24   25 1
  46   24   26 1
  47   24   45 1
  48   25   26 1
  49   25   46 1
  50   25   47 1
  51   26   48 1
  52   26   49 1

#	End of record

