#	Name: ASD00310209
#	Creating user name:	WinNT
#	Creation time:	15. 06. 2019 18:34

#	Modifying user name:	WinNT
#	Modification time:	15. 06. 2019 18:34

#	Program:	/corina/corina34_cracker 3.40 0067  02.08.2006

@<TRIPOS>MOLECULE
ASD00310209
  25   25    0    0    0
SMALL
NO_CHARGES


@<TRIPOS>ATOM
   1 C1            -0.0187     1.5258     0.0104 C.3     
   2 C2             0.0021    -0.0041     0.0020 C.3     
   3 C3             0.7182    -0.4975    -1.2568 C.3     
   4 O4             1.3220     2.0204     0.0003 O.3     
   5 C5             0.7421    -0.5109     1.2415 C.3     
   6 C6            -1.4117    -0.5257     0.0127 C.ar    
   7 C7            -1.6456    -1.8882     0.0076 C.ar    
   8 C8            -2.9422    -2.3670     0.0179 C.ar    
   9 C9            -4.0057    -1.4827     0.0333 C.ar    
  10 C10           -3.7712    -0.1195     0.0383 C.ar    
  11 C11           -2.4743     0.3584     0.0334 C.ar    
  12 Br12          -5.7798    -2.1373     0.0467 Br      
  13 H13           -0.5459     1.8868    -0.8726 H       
  14 H14           -0.5289     1.8773     0.9072 H       
  15 H15            1.7408    -0.1202    -1.2645 H       
  16 H16            0.7330    -1.5874    -1.2628 H       
  17 H17            0.1910    -0.1364    -2.1398 H       
  18 H18            1.3852     2.9853     0.0049 H       
  19 H19            0.2319    -0.1594     2.1383 H       
  20 H20            0.7568    -1.6008     1.2356 H       
  21 H21            1.7647    -0.1336     1.2338 H       
  22 H22           -0.8152    -2.5785    -0.0047 H       
  23 H23           -3.1248    -3.4315     0.0136 H       
  24 H24           -4.6013     0.5713     0.0500 H       
  25 H25           -2.2910     1.4227     0.0415 H       
@<TRIPOS>BOND
   1    1    2 1
   2    1    4 1
   3    1   13 1
   4    1   14 1
   5    2    3 1
   6    2    5 1
   7    2    6 1
   8    3   15 1
   9    3   16 1
  10    3   17 1
  11    4   18 1
  12    5   19 1
  13    5   20 1
  14    5   21 1
  15    6    7 ar
  16    6   11 ar
  17    7    8 ar
  18    7   22 1
  19    8    9 ar
  20    8   23 1
  21    9   10 ar
  22    9   12 1
  23   10   11 ar
  24   10   24 1
  25   11   25 1

#	End of record

