#	Name: ASD01360014
#	Creating user name:	WinNT
#	Creation time:	15. 06. 2019 19:16

#	Modifying user name:	WinNT
#	Modification time:	15. 06. 2019 19:16

#	Program:	/corina/corina34_cracker 3.40 0067  02.08.2006

@<TRIPOS>MOLECULE
ASD01360014
   4    3    0    0    0
SMALL
NO_CHARGES


@<TRIPOS>ATOM
   1 Be1           -0.0168     1.3858     0.0097 Du      
   2 F2             0.0021    -0.0041     0.0020 F       
   3 F3             1.1774     2.0971     0.0021 F       
   4 F4            -1.2299     2.0643     0.0191 F       
@<TRIPOS>BOND
   1    1    2 1
   2    1    3 1
   3    1    4 1

#	End of record

