#	Name: ASD06170171
#	Creating user name:	WinNT
#	Creation time:	15. 06. 2019 21:05

#	Modifying user name:	WinNT
#	Modification time:	15. 06. 2019 21:05

#	Program:	/corina/corina34_cracker 3.40 0067  02.08.2006

@<TRIPOS>MOLECULE
ASD06170171
  70   74    0    0    0
SMALL
NO_CHARGES


@<TRIPOS>ATOM
   1 N1             0.2809     0.6261    -1.1152 N.pl3   
   2 N2             0.2468    -0.6634    -0.5763 N.am    
   3 C3             1.4619    -0.9465    -0.0626 C.2     
   4 C4             2.3013     0.2391    -0.2966 C.2     
   5 C5             1.5052     1.1613    -0.9474 C.2     
   6 C6             3.7083     0.4085     0.0862 C.2     
   7 O7             4.2874     1.4479    -0.1692 O.2     
   8 N8             4.3586    -0.5870     0.7205 N.am    
   9 C9            -0.8613    -1.5169    -0.5703 C.ar    
  10 C10           -1.6565    -1.6329    -1.7031 C.ar    
  11 C11           -2.7497    -2.4768    -1.6941 C.ar    
  12 C12           -3.0531    -3.2056    -0.5587 C.ar    
  13 C13           -2.2636    -3.0921     0.5710 C.ar    
  14 C14           -1.1654    -2.2546     0.5664 C.ar    
  15 O15            1.7974    -1.9792     0.4867 O.2     
  16 C16            5.7395    -0.4957     0.9361 C.ar    
  17 C17            6.3467     0.7499     1.0295 C.ar    
  18 C18            7.7077     0.8402     1.2414 C.ar    
  19 C19            8.4701    -0.3151     1.3618 C.ar    
  20 C20            7.8622    -1.5610     1.2687 C.ar    
  21 C21            6.5005    -1.6507     1.0620 C.ar    
  22 S22           10.2075    -0.2002     1.6318 S.3     
  23 N23           10.2978    -0.4987     6.1523 N.ar    
  24 C24            9.1503    -0.4235     5.5180 C.ar    
  25 C25            9.0826    -0.3316     4.1356 C.ar    
  26 C26           10.2523    -0.3163     3.3894 C.ar    
  27 C27           11.4830    -0.3975     4.0845 C.ar    
  28 C28           12.7062    -0.3883     3.4005 C.ar    
  29 C29           13.8731    -0.4681     4.0973 C.ar    
  30 C30           13.8678    -0.5594     5.4918 C.ar    
  31 C31           12.6824    -0.5708     6.1921 C.ar    
  32 C32           11.4654    -0.4897     5.4972 C.ar    
  33 O33           15.0456    -0.6384     6.1639 O.3     
  34 C34           16.2413    -0.6224     5.3817 C.3     
  35 C35            1.9346     2.5347    -1.3950 C.3     
  36 C36           -0.8463     1.2938    -1.7709 C.3     
  37 C37           -1.5252     2.2406    -0.7791 C.3     
  38 C38           -2.7751     2.8435    -1.4234 C.3     
  39 C39           -1.9234     1.4633     0.4771 C.3     
  40 O40           -0.6199     3.2878    -0.4243 O.3     
  41 H41            3.8703    -1.3668     1.0278 H       
  42 H42           -1.4205    -1.0634    -2.5899 H       
  43 H43           -3.3685    -2.5675    -2.5746 H       
  44 H44           -3.9087    -3.8646    -0.5541 H       
  45 H45           -2.5036    -3.6621     1.4563 H       
  46 H46           -0.5464    -2.1700     1.4474 H       
  47 H47            5.7541     1.6479     0.9359 H       
  48 H48            8.1799     1.8089     1.3134 H       
  49 H49            8.4547    -2.4592     1.3619 H       
  50 H50            6.0273    -2.6192     0.9937 H       
  51 H51            8.2335    -0.4346     6.0888 H       
  52 H52            8.1237    -0.2716     3.6423 H       
  53 H53           12.7230    -0.3184     2.3228 H       
  54 H54           14.8135    -0.4610     3.5663 H       
  55 H55           12.6889    -0.6414     7.2698 H       
  56 H56           17.1072    -0.6912     6.0401 H       
  57 H57           16.2382    -1.4695     4.6958 H       
  58 H58           16.2907     0.3058     4.8124 H       
  59 H59            1.7449     3.2527    -0.5972 H       
  60 H60            2.9992     2.5243    -1.6289 H       
  61 H61            1.3704     2.8204    -2.2828 H       
  62 H62           -0.4835     1.8632    -2.6266 H       
  63 H63           -1.5641     0.5467    -2.1095 H       
  64 H64           -3.4656     2.0448    -1.6941 H       
  65 H65           -3.2587     3.5180    -0.7169 H       
  66 H66           -2.4914     3.3973    -2.3184 H       
  67 H67           -1.0330     1.0338     0.9362 H       
  68 H68           -2.4071     2.1378     1.1837 H       
  69 H69           -2.6139     0.6646     0.2065 H       
  70 H70           -0.3247     3.8232    -1.1735 H       
@<TRIPOS>BOND
   1    1    2 1
   2    1    5 1
   3    1   36 1
   4    2    3 am
   5    2    9 1
   6    3    4 1
   7    3   15 2
   8    4    5 2
   9    4    6 1
  10    5   35 1
  11    6    7 2
  12    6    8 am
  13    8   16 1
  14    8   41 1
  15    9   10 ar
  16    9   14 ar
  17   10   11 ar
  18   10   42 1
  19   11   12 ar
  20   11   43 1
  21   12   13 ar
  22   12   44 1
  23   13   14 ar
  24   13   45 1
  25   14   46 1
  26   16   17 ar
  27   16   21 ar
  28   17   18 ar
  29   17   47 1
  30   18   19 ar
  31   18   48 1
  32   19   20 ar
  33   19   22 1
  34   20   21 ar
  35   20   49 1
  36   21   50 1
  37   22   26 1
  38   23   24 ar
  39   23   32 ar
  40   24   25 ar
  41   24   51 1
  42   25   26 ar
  43   25   52 1
  44   26   27 ar
  45   27   28 ar
  46   27   32 ar
  47   28   29 ar
  48   28   53 1
  49   29   30 ar
  50   29   54 1
  51   30   31 ar
  52   30   33 1
  53   31   32 ar
  54   31   55 1
  55   33   34 1
  56   34   56 1
  57   34   57 1
  58   34   58 1
  59   35   59 1
  60   35   60 1
  61   35   61 1
  62   36   37 1
  63   36   62 1
  64   36   63 1
  65   37   38 1
  66   37   39 1
  67   37   40 1
  68   38   64 1
  69   38   65 1
  70   38   66 1
  71   39   67 1
  72   39   68 1
  73   39   69 1
  74   40   70 1

#	End of record

