#	Name: ASD01811260
#	Creating user name:	WinNT
#	Creation time:	15. 06. 2019 19:26

#	Modifying user name:	WinNT
#	Modification time:	15. 06. 2019 19:26

#	Program:	/corina/corina34_cracker 3.40 0067  02.08.2006

@<TRIPOS>MOLECULE
ASD01811260
  30   31    0    0    0
SMALL
NO_CHARGES


@<TRIPOS>ATOM
   1 C1            -0.0095     1.4706     0.0894 C.2     
   2 C2             0.0062    -0.0047     0.0406 C.ar    
   3 C3             1.2159    -0.6872    -0.1187 C.ar    
   4 C4             1.2332    -2.0652    -0.1641 C.ar    
   5 C5             0.0539    -2.7821    -0.0528 C.ar    
   6 C6            -1.1629    -2.1107     0.1065 C.ar    
   7 C7            -1.1849    -0.7201     0.1591 C.ar    
   8 O8             1.0360     2.0893     0.0970 O.2     
   9 O9            -1.1834     2.1311     0.1199 O.3     
  10 C10            2.5041     0.0851    -0.2416 C.3     
  11 F11            0.0784    -4.1321    -0.0986 F       
  12 N12           -4.4877    -3.3341     0.4423 N.2     
  13 N13           -3.6297    -2.3792     0.3765 N.2     
  14 C14           -2.4226    -2.8771     0.2244 C.2     
  15 N15           -2.5529    -4.2392     0.1949 N.pl3   
  16 C16           -3.8839    -4.4872     0.3369 C.2     
  17 C17           -4.5399    -5.8435     0.3679 C.3     
  18 C18           -5.3684    -5.9802     1.6469 C.3     
  19 H19            2.1704    -2.5875    -0.2873 H       
  20 H20           -2.1211    -0.1970     0.2864 H       
  21 H21           -1.1430     3.0968     0.1515 H       
  22 H22            2.8684     0.3447     0.7524 H       
  23 H23            3.2474    -0.5269    -0.7526 H       
  24 H24            2.3284     0.9962    -0.8135 H       
  25 H25           -1.8434    -4.8928     0.0938 H       
  26 H26           -5.1906    -5.9523    -0.4998 H       
  27 H27           -3.7736    -6.6184     0.3468 H       
  28 H28           -5.8429    -6.9612     1.6694 H       
  29 H29           -4.7177    -5.8714     2.5146 H       
  30 H30           -6.1347    -5.2054     1.6680 H       
@<TRIPOS>BOND
   1    1    2 1
   2    1    8 2
   3    1    9 1
   4    2    3 ar
   5    2    7 ar
   6    3    4 ar
   7    3   10 1
   8    4    5 ar
   9    4   19 1
  10    5    6 ar
  11    5   11 1
  12    6    7 ar
  13    6   14 1
  14    7   20 1
  15    9   21 1
  16   10   22 1
  17   10   23 1
  18   10   24 1
  19   12   13 1
  20   12   16 2
  21   13   14 2
  22   14   15 1
  23   15   16 1
  24   15   25 1
  25   16   17 1
  26   17   18 1
  27   17   26 1
  28   17   27 1
  29   18   28 1
  30   18   29 1
  31   18   30 1

#	End of record

