#	Name: ASD01912499
#	Creating user name:	WinNT
#	Creation time:	15. 06. 2019 19:59

#	Modifying user name:	WinNT
#	Modification time:	15. 06. 2019 19:59

#	Program:	/corina/corina34_cracker 3.40 0067  02.08.2006

@<TRIPOS>MOLECULE
ASD01912499
  43   46    0    0    0
SMALL
NO_CHARGES


@<TRIPOS>ATOM
   1 C1            -0.0254     1.3718    -0.0029 C.2     
   2 O2            -0.0200     0.0352     0.0055 O.3     
   3 N3            -1.1579    -0.3848     0.0129 N.2     
   4 C4            -2.0046     0.6117     0.0101 C.2     
   5 N5            -1.2786     1.7524     0.0052 N.2     
   6 C6            -3.4853     0.5097     0.0170 C.ar    
   7 C7            -4.0996    -0.7404     0.0280 C.ar    
   8 C8            -5.4783    -0.8294     0.0343 C.ar    
   9 C9            -6.2481     0.3210     0.0297 C.ar    
  10 C10           -5.6421     1.5643     0.0187 C.ar    
  11 C11           -4.2656     1.6642     0.0182 C.ar    
  12 Cl12          -6.2464    -2.3862     0.0475 Cl      
  13 C13            1.1834     2.2717    -0.0132 C.3     
  14 C14            2.1062     2.0840     1.2046 C.3     
  15 N15            3.2241     2.1802     0.2460 N.am    
  16 C16            2.3520     1.7303    -0.8563 C.3     
  17 C17            4.5207     2.5360     0.3396 C.2     
  18 N18            5.0104     2.9968     1.5076 N.am    
  19 O19            5.2486     2.4413    -0.6297 O.2     
  20 C20            4.2541     3.2584     2.7465 C.3     
  21 C21            5.2470     3.1352     3.9172 C.3     
  22 C22            6.6096     2.8226     3.2567 C.3     
  23 C23            6.4193     3.3380     1.8117 C.3     
  24 C24            7.7387     3.5786     3.9598 C.3     
  25 H25           -3.4994    -1.6382     0.0313 H       
  26 H26           -7.3256     0.2475     0.0342 H       
  27 H27           -6.2473     2.4588     0.0151 H       
  28 H28           -3.7939     2.6357     0.0100 H       
  29 H29            0.9361     3.3130    -0.2201 H       
  30 H30            2.0664     2.9079     1.9172 H       
  31 H31            2.0160     1.1062     1.6776 H       
  32 H32            2.3340     0.6485    -0.9888 H       
  33 H33            2.5085     2.2718    -1.7893 H       
  34 H34            3.8344     4.2640     2.7199 H       
  35 H35            3.4568     2.5233     2.8569 H       
  36 H36            5.3001     4.0737     4.4690 H       
  37 H37            4.9519     2.3216     4.5799 H       
  38 H38            6.8023     1.7497     3.2585 H       
  39 H39            7.0973     2.8265     1.1285 H       
  40 H40            6.5669     4.4170     1.7656 H       
  41 H41            7.7954     3.2609     5.0010 H       
  42 H42            8.6845     3.3639     3.4624 H       
  43 H43            7.5406     4.6496     3.9170 H       
@<TRIPOS>BOND
   1    1    2 1
   2    1   13 1
   3    1    5 2
   4    2    3 1
   5    3    4 2
   6    4    5 1
   7    4    6 1
   8    6    7 ar
   9    6   11 ar
  10    7    8 ar
  11    7   25 1
  12    8    9 ar
  13    8   12 1
  14    9   10 ar
  15    9   26 1
  16   10   11 ar
  17   10   27 1
  18   11   28 1
  19   13   14 1
  20   13   16 1
  21   13   29 1
  22   14   15 1
  23   14   30 1
  24   14   31 1
  25   15   16 1
  26   15   17 am
  27   16   32 1
  28   16   33 1
  29   17   18 am
  30   17   19 2
  31   18   20 1
  32   18   23 1
  33   20   21 1
  34   20   34 1
  35   20   35 1
  36   21   22 1
  37   21   36 1
  38   21   37 1
  39   22   23 1
  40   22   24 1
  41   22   38 1
  42   23   39 1
  43   23   40 1
  44   24   41 1
  45   24   42 1
  46   24   43 1

#	End of record

