#	Name: ASD01880600
#	Creating user name:	WinNT
#	Creation time:	15. 06. 2019 19:41

#	Modifying user name:	WinNT
#	Modification time:	15. 06. 2019 19:41

#	Program:	/corina/corina34_cracker 3.40 0067  02.08.2006

@<TRIPOS>MOLECULE
ASD01880600
  48   51    0    0    0
SMALL
NO_CHARGES


@<TRIPOS>ATOM
   1 N1            -0.0326     1.2629    -0.1609 N.ar    
   2 C2             0.0470    -0.0506    -0.2000 C.ar    
   3 N3             1.1935    -0.6838    -0.0489 N.ar    
   4 C4             2.3211    -0.0170     0.1495 C.ar    
   5 C5             2.2875     1.3670     0.1980 C.ar    
   6 C6             1.0562     2.0050     0.0346 C.ar    
   7 C7             3.5471     2.1634     0.4221 C.3     
   8 O8             4.2288     2.3366    -0.8217 O.3     
   9 C9             5.3908     3.0373    -0.7951 C.ar    
  10 C10            6.1055     3.2431    -1.9712 C.ar    
  11 C11            7.2804     3.9524    -1.9429 C.ar    
  12 C12            7.7654     4.4710    -0.7376 C.ar    
  13 C13            7.0434     4.2618     0.4406 C.ar    
  14 C14            5.8628     3.5536     0.4058 C.ar    
  15 C15            8.2745     4.3468    -3.0067 C.3     
  16 N16            9.3269     5.1067    -2.3224 N.am    
  17 C17            9.0291     5.1759    -1.0136 C.2     
  18 O18            9.7064     5.7405    -0.1764 O.2     
  19 Br19           3.9558    -0.9431     0.3646 Br      
  20 C20            0.9623     3.4845     0.0770 C.ar    
  21 C21            1.8917     4.2643    -0.6091 C.ar    
  22 C22            1.7992     5.6406    -0.5664 C.ar    
  23 C23            0.7868     6.2464     0.1558 C.ar    
  24 C24           -0.1381     5.4774     0.8390 C.ar    
  25 C25           -0.0591     4.1002     0.7984 C.ar    
  26 C26           11.4210     7.7311    -4.0812 C.3     
  27 C27           10.1875     7.1187    -3.4145 C.3     
  28 C28           10.5079     5.6931    -2.9608 C.3     
  29 H29           -0.8528    -0.6260    -0.3600 H       
  30 H30            3.2913     3.1391     0.8352 H       
  31 H31            4.1938     1.6316     1.1200 H       
  32 H32            5.7365     2.8449    -2.9048 H       
  33 H33            7.4092     4.6575     1.3765 H       
  34 H34            5.3051     3.3926     1.3166 H       
  35 H35            8.6977     3.4568    -3.4725 H       
  36 H36            7.7910     4.9701    -3.7588 H       
  37 H37            2.6830     3.7925    -1.1727 H       
  38 H38            2.5188     6.2459    -1.0976 H       
  39 H39            0.7185     7.3238     0.1867 H       
  40 H40           -0.9262     5.9557     1.4016 H       
  41 H41           -0.7817     3.5008     1.3322 H       
  42 H42           12.2457     7.7533    -3.3688 H       
  43 H43           11.7033     7.1296    -4.9452 H       
  44 H44           11.1927     8.7467    -4.4044 H       
  45 H45            9.9052     7.7202    -2.5504 H       
  46 H46            9.3628     7.0966    -4.1269 H       
  47 H47           11.3326     5.7153    -2.2484 H       
  48 H48           10.7902     5.0916    -3.8248 H       
@<TRIPOS>BOND
   1    1    2 ar
   2    1    6 ar
   3    2    3 ar
   4    2   29 1
   5    3    4 ar
   6    4    5 ar
   7    4   19 1
   8    5    6 ar
   9    5    7 1
  10    6   20 1
  11    7    8 1
  12    7   30 1
  13    7   31 1
  14    8    9 1
  15    9   10 ar
  16    9   14 ar
  17   10   11 ar
  18   10   32 1
  19   11   12 ar
  20   11   15 1
  21   12   13 ar
  22   12   17 1
  23   13   14 ar
  24   13   33 1
  25   14   34 1
  26   15   16 1
  27   15   35 1
  28   15   36 1
  29   16   17 am
  30   16   28 1
  31   17   18 2
  32   20   21 ar
  33   20   25 ar
  34   21   22 ar
  35   21   37 1
  36   22   23 ar
  37   22   38 1
  38   23   24 ar
  39   23   39 1
  40   24   25 ar
  41   24   40 1
  42   25   41 1
  43   26   27 1
  44   26   42 1
  45   26   43 1
  46   26   44 1
  47   27   28 1
  48   27   45 1
  49   27   46 1
  50   28   47 1
  51   28   48 1

#	End of record

