#	Name: ASD09116349
#	Creating user name:	WinNT
#	Creation time:	15. 06. 2019 21:21

#	Modifying user name:	WinNT
#	Modification time:	15. 06. 2019 21:21

#	Program:	/corina/corina34_cracker 3.40 0067  02.08.2006

@<TRIPOS>MOLECULE
ASD09116349
  74   80    0    0    0
SMALL
NO_CHARGES


@<TRIPOS>ATOM
   1 N1            -0.0224     1.4418    -0.7039 N.2     
   2 N2            -0.0333     0.1047    -1.1326 N.pl3   
   3 C3             1.2324     1.8212    -0.6653 C.2     
   4 N4             2.0087     0.7994    -1.0450 N.2     
   5 C5             1.2596    -0.2440    -1.3304 C.2     
   6 N6             1.7127    -1.4780    -1.7564 N.pl3   
   7 C7            -1.1562    -0.7055    -1.3179 C.ar    
   8 N8             1.6848     3.0861    -0.2898 N.pl3   
   9 C9             3.0587     3.3356    -0.1850 C.ar    
  10 C10            3.5547     4.6082    -0.4387 C.ar    
  11 C11            3.9242     2.3127     0.1781 C.ar    
  12 C12            5.2799     2.5582     0.2826 C.ar    
  13 C13            5.7774     3.8275     0.0249 C.ar    
  14 C14            4.9106     4.8542    -0.3347 C.ar    
  15 N15            7.1524     4.0762     0.1314 N.3     
  16 F16            5.3945     6.0902    -0.5863 F       
  17 N17           -1.1073    -1.7282    -2.1588 N.ar    
  18 N18           -2.1102    -2.5003    -2.3753 N.ar    
  19 C19           -3.2674    -2.3264    -1.7720 C.ar    
  20 C20           -3.4135    -1.2857    -0.8521 C.ar    
  21 C21           -2.3317    -0.4448    -0.6144 C.ar    
  22 C22           -4.4457    -3.2098    -2.0725 C.3     
  23 C23           -4.6669    -4.2272    -0.9585 C.3     
  24 C24           -4.5449    -3.5674     0.4127 C.3     
  25 C25           -5.2760    -2.2541     0.4591 C.ar    
  26 C26           -4.7020    -1.1319    -0.1419 C.ar    
  27 C27            7.6327     3.8031     1.4920 C.3     
  28 C28            9.0998     4.2222     1.6103 C.3     
  29 C29            9.9323     3.4422     0.5889 C.3     
  30 C30            9.3812     3.7061    -0.8152 C.3     
  31 C31            7.9059     3.3019    -0.8631 C.3     
  32 N32           11.3321     3.8825     0.6576 N.3     
  33 C33           11.9136     3.5902     1.9806 C.3     
  34 C34           13.1638     2.7162     1.7475 C.3     
  35 C35           13.5438     3.0348     0.2775 C.3     
  36 C36           12.1500     3.2111    -0.3749 C.3     
  37 C37           -6.4970    -2.1452     1.0885 C.ar    
  38 C38           -7.1430    -0.9221     1.1389 C.ar    
  39 C39           -6.5685     0.1961     0.5626 C.ar    
  40 C40           -5.3488     0.0970    -0.0786 C.ar    
  41 H41            2.6636    -1.6330    -1.8693 H       
  42 H42            1.0800    -2.1893    -1.9425 H       
  43 H43            1.0477     3.7928    -0.1012 H       
  44 H44            2.8809     5.4049    -0.7174 H       
  45 H45            3.5376     1.3245     0.3792 H       
  46 H46            5.9524     1.7619     0.5655 H       
  47 H47           -2.4015     0.3800     0.0794 H       
  48 H48           -5.3383    -2.5927    -2.1757 H       
  49 H49           -4.2670    -3.7381    -3.0091 H       
  50 H50           -5.6621    -4.6600    -1.0607 H       
  51 H51           -3.9223    -5.0187    -1.0430 H       
  52 H52           -4.9620    -4.2343     1.1673 H       
  53 H53           -3.4912    -3.3966     0.6333 H       
  54 H54            7.0350     4.3670     2.2082 H       
  55 H55            7.5413     2.7375     1.7023 H       
  56 H56            9.1901     5.2905     1.4136 H       
  57 H57            9.4605     4.0049     2.6156 H       
  58 H58            9.8735     2.3763     0.8089 H       
  59 H59            9.4759     4.7663    -1.0500 H       
  60 H60            9.9429     3.1201    -1.5426 H       
  61 H61            7.8133     2.2387    -0.6417 H       
  62 H62            7.5067     3.5019    -1.8575 H       
  63 H63           12.1976     4.5196     2.4743 H       
  64 H64           11.1913     3.0489     2.5917 H       
  65 H65           13.9677     3.0050     2.4246 H       
  66 H66           12.9223     1.6596     1.8627 H       
  67 H67           14.1235     3.9558     0.2149 H       
  68 H68           14.0844     2.2035    -0.1750 H       
  69 H69           11.7226     2.2401    -0.6253 H       
  70 H70           12.2240     3.8352    -1.2655 H       
  71 H71           -6.9502    -3.0143     1.5421 H       
  72 H72           -8.1008    -0.8405     1.6313 H       
  73 H73           -7.0745     1.1489     0.6136 H       
  74 H74           -4.8995     0.9703    -0.5277 H       
@<TRIPOS>BOND
   1    1    2 1
   2    1    3 2
   3    2    7 1
   4    2    5 1
   5    3    4 1
   6    3    8 1
   7    4    5 2
   8    5    6 1
   9    6   41 1
  10    6   42 1
  11    7   17 ar
  12    7   21 ar
  13    8    9 1
  14    8   43 1
  15    9   10 ar
  16    9   11 ar
  17   10   14 ar
  18   10   44 1
  19   11   12 ar
  20   11   45 1
  21   12   13 ar
  22   12   46 1
  23   13   14 ar
  24   13   15 1
  25   14   16 1
  26   15   27 1
  27   15   31 1
  28   17   18 ar
  29   18   19 ar
  30   19   20 ar
  31   19   22 1
  32   20   21 ar
  33   20   26 1
  34   21   47 1
  35   22   23 1
  36   22   48 1
  37   22   49 1
  38   23   24 1
  39   23   50 1
  40   23   51 1
  41   24   25 1
  42   24   52 1
  43   24   53 1
  44   25   26 ar
  45   25   37 ar
  46   26   40 ar
  47   27   28 1
  48   27   54 1
  49   27   55 1
  50   28   29 1
  51   28   56 1
  52   28   57 1
  53   29   30 1
  54   29   32 1
  55   29   58 1
  56   30   31 1
  57   30   59 1
  58   30   60 1
  59   31   61 1
  60   31   62 1
  61   32   33 1
  62   32   36 1
  63   33   34 1
  64   33   63 1
  65   33   64 1
  66   34   35 1
  67   34   65 1
  68   34   66 1
  69   35   36 1
  70   35   67 1
  71   35   68 1
  72   36   69 1
  73   36   70 1
  74   37   38 ar
  75   37   71 1
  76   38   39 ar
  77   38   72 1
  78   39   40 ar
  79   39   73 1
  80   40   74 1

#	End of record

