#	Name: ASD04580001
#	Creating user name:	WinNT
#	Creation time:	15. 06. 2019 20:50

#	Modifying user name:	WinNT
#	Modification time:	15. 06. 2019 20:50

#	Program:	/corina/corina34_cracker 3.40 0067  02.08.2006

@<TRIPOS>MOLECULE
ASD04580001
  90   92    0    0    0
SMALL
NO_CHARGES


@<TRIPOS>ATOM
   1 N1             0.1059     1.4393     0.0668 N.3     
   2 N2             2.1763     8.1298     1.4671 N.3     
   3 N3            -1.1670     2.8919    -2.8885 N.3     
   4 N4             4.0801     7.7848    -1.4859 N.3     
   5 N5             2.8805    -0.9671    -2.1746 N.3     
   6 N6            -0.2094    11.2450    -0.2984 N.3     
   7 N7             1.7036     0.4818    -5.2111 N.3     
   8 N8             1.6163    10.9347    -3.3438 N.3     
   9 C9             0.2108    -0.0253     0.0238 C.3     
  10 C10            2.0118     9.5170     1.9215 C.3     
  11 C11            1.3189     2.0700    -0.4707 C.3     
  12 C12            1.1263     7.7620     0.5079 C.3     
  13 C13            3.5117     7.9190     0.8923 C.3     
  14 C14           -1.0900     1.9028    -0.6495 C.3     
  15 C15            1.6809    -0.4277    -0.1089 C.3     
  16 C16            0.5798     9.9783     1.6433 C.3     
  17 C17            1.2686     3.5544    -0.2155 C.ar    
  18 C18            1.1766     6.2776     0.2527 C.ar    
  19 C19           -0.7327     3.1207    -1.5039 C.3     
  20 C20            3.3906     7.0921    -0.3892 C.3     
  21 C21            1.8338    -1.4307    -1.2540 C.3     
  22 C22            0.6096    11.3254     0.9185 C.3     
  23 C23            1.0792     5.3910     1.3088 C.ar    
  24 C24            1.1254     4.0294     1.0747 C.ar    
  25 C25            1.3252     5.8026    -1.0370 C.ar    
  26 C26            1.3714     4.4410    -1.2711 C.ar    
  27 C27            3.2724     7.7628    -2.7128 C.3     
  28 C28           -0.1279     3.3050    -3.8411 C.3     
  29 C29            0.0209     2.2383    -4.9279 C.3     
  30 C30            3.2917     9.1486    -3.3610 C.3     
  31 C31            2.4775    -1.1661    -3.5732 C.3     
  32 C32            0.4537    11.9156    -1.4246 C.3     
  33 C33            1.5047     1.9358    -5.1459 C.3     
  34 C34            1.8681     9.5471    -3.7551 C.3     
  35 C35            2.8521     0.0703    -4.3928 C.3     
  36 C36            0.3096    11.0595    -2.6845 C.3     
  37 H37           -1.4258     1.9272    -3.0315 H       
  38 H38            4.3155     8.7306    -1.2249 H       
  39 H39            3.1141    -0.0012    -1.9996 H       
  40 H40           -0.4264    10.2861    -0.5255 H       
  41 H41            0.8675    -0.0103    -4.9342 H       
  42 H42            2.3560    11.2750    -2.7479 H       
  43 H43           -0.1997    -0.4460     0.9417 H       
  44 H44           -0.3483    -0.4046    -0.8315 H       
  45 H45            2.2107     9.5748     2.9917 H       
  46 H46            2.7110    10.1599     1.3868 H       
  47 H47            2.1959     1.6467     0.0189 H       
  48 H48            1.3783     1.8876    -1.5437 H       
  49 H49            0.1514     8.0275     0.9168 H       
  50 H50            1.2857     8.2972    -0.4282 H       
  51 H51            3.9641     8.8834     0.6611 H       
  52 H52            4.1364     7.3874     1.6101 H       
  53 H53           -1.4608     1.1043    -1.2921 H       
  54 H54           -1.8610     2.1775     0.0703 H       
  55 H55            2.2823     0.4570    -0.3181 H       
  56 H56            2.0180    -0.8844     0.8216 H       
  57 H57            0.0753     9.2409     1.0190 H       
  58 H58            0.0427    10.0847     2.5858 H       
  59 H59            0.3459     3.2758    -1.4823 H       
  60 H60           -1.2347     4.0029    -1.1068 H       
  61 H61            2.3380     6.9674    -0.6431 H       
  62 H62            3.8454     6.1136    -0.2346 H       
  63 H63            0.8892    -1.5157    -1.7911 H       
  64 H64            2.1108    -2.4043    -0.8497 H       
  65 H65            1.6371    11.5705     0.6493 H       
  66 H66            0.2112    12.0997     1.5741 H       
  67 H67            0.9631     5.7621     2.3164 H       
  68 H68            1.0492     3.3367     1.8998 H       
  69 H69            1.4014     6.4953    -1.8621 H       
  70 H70            1.4881     4.0699    -2.2786 H       
  71 H71            3.6859     7.0312    -3.4069 H       
  72 H72            2.2459     7.4908    -2.4671 H       
  73 H73           -0.4107     4.2529    -4.2988 H       
  74 H74            0.8200     3.4235    -3.3162 H       
  75 H75           -0.4935     1.3289    -4.6172 H       
  76 H76           -0.4160     2.6032    -5.8574 H       
  77 H77            3.6896     9.8754    -2.6528 H       
  78 H78            3.9218     9.1250    -4.2501 H       
  79 H79            2.9893    -2.0392    -3.9780 H       
  80 H80            1.3997    -1.3216    -3.6221 H       
  81 H81           -0.0087    12.8884    -1.5915 H       
  82 H82            1.5109    12.0503    -1.1958 H       
  83 H83            2.0844     2.3451    -4.3185 H       
  84 H84            1.8346     2.3899    -6.0803 H       
  85 H85            1.1558     8.8866    -3.2606 H       
  86 H86            1.7529     9.4618    -4.8357 H       
  87 H87            3.6950    -0.1660    -5.0423 H       
  88 H88            3.1283     0.8822    -3.7200 H       
  89 H89           -0.3976    11.5322    -3.3660 H       
  90 H90           -0.0556    10.0695    -2.4112 H       
@<TRIPOS>BOND
   1    1    9 1
   2    1   11 1
   3    1   14 1
   4    2   10 1
   5    2   12 1
   6    2   13 1
   7    3   19 1
   8    3   28 1
   9    3   37 1
  10    4   20 1
  11    4   27 1
  12    4   38 1
  13    5   21 1
  14    5   31 1
  15    5   39 1
  16    6   22 1
  17    6   32 1
  18    6   40 1
  19    7   33 1
  20    7   35 1
  21    7   41 1
  22    8   34 1
  23    8   36 1
  24    8   42 1
  25    9   15 1
  26    9   43 1
  27    9   44 1
  28   10   16 1
  29   10   45 1
  30   10   46 1
  31   11   17 1
  32   11   47 1
  33   11   48 1
  34   12   18 1
  35   12   49 1
  36   12   50 1
  37   13   20 1
  38   13   51 1
  39   13   52 1
  40   14   19 1
  41   14   53 1
  42   14   54 1
  43   15   21 1
  44   15   55 1
  45   15   56 1
  46   16   22 1
  47   16   57 1
  48   16   58 1
  49   17   24 ar
  50   17   26 ar
  51   18   23 ar
  52   18   25 ar
  53   19   59 1
  54   19   60 1
  55   20   61 1
  56   20   62 1
  57   21   63 1
  58   21   64 1
  59   22   65 1
  60   22   66 1
  61   23   24 ar
  62   23   67 1
  63   24   68 1
  64   25   26 ar
  65   25   69 1
  66   26   70 1
  67   27   30 1
  68   27   71 1
  69   27   72 1
  70   28   29 1
  71   28   73 1
  72   28   74 1
  73   29   33 1
  74   29   75 1
  75   29   76 1
  76   30   34 1
  77   30   77 1
  78   30   78 1
  79   31   35 1
  80   31   79 1
  81   31   80 1
  82   32   36 1
  83   32   81 1
  84   32   82 1
  85   33   83 1
  86   33   84 1
  87   34   85 1
  88   34   86 1
  89   35   87 1
  90   35   88 1
  91   36   89 1
  92   36   90 1

#	End of record

