#	Name: ASD02038042
#	Creating user name:	WinNT
#	Creation time:	15. 06. 2019 20:16

#	Modifying user name:	WinNT
#	Modification time:	15. 06. 2019 20:16

#	Program:	/corina/corina34_cracker 3.40 0067  02.08.2006

@<TRIPOS>MOLECULE
ASD02038042
  48   50    0    0    0
SMALL
NO_CHARGES


@<TRIPOS>ATOM
   1 O1            -0.0176     1.4478     0.0100 O.3     
   2 N2             1.2258     3.4220     0.0087 N.am    
   3 C3             1.1736     2.0753     0.0020 C.2     
   4 C4             1.3875     7.0407     2.2417 C.3     
   5 O5             0.3175     7.9773     2.1008 O.3     
   6 C6             0.2180     8.9481     3.0479 C.ar    
   7 C7            -0.7973     9.8898     2.9717 C.ar    
   8 C8             1.1286     8.9930     4.0931 C.ar    
   9 C9             1.0276     9.9791     5.0552 C.ar    
  10 C10            0.0159    10.9245     4.9756 C.ar    
  11 C11           -0.8983    10.8759     3.9337 C.ar    
  12 O12            2.2015     1.4274    -0.0113 O.2     
  13 O13           -0.0841    11.8947     5.9232 O.3     
  14 C14            0.0021    -0.0041     0.0020 C.3     
  15 C15           -1.4117    -0.5257     0.0127 C.ar    
  16 C16           -2.0714    -0.7584    -1.1799 C.ar    
  17 C17           -2.0462    -0.7765     1.2146 C.ar    
  18 C18           -3.3441    -1.2554     1.2249 C.ar    
  19 C19           -4.0066    -1.4830     0.0308 C.ar    
  20 C20           -3.3680    -1.2368    -1.1715 C.ar    
  21 Cl21          -4.1414    -1.5712     2.7343 Cl      
  22 Cl22          -5.6353    -2.0839     0.0419 Cl      
  23 C23            2.5181     4.1211     0.0001 C.3     
  24 C24            2.5533     5.1067     1.1724 C.3     
  25 C25            1.3374     6.0325     1.0920 C.3     
  26 C26            0.0552     5.2035     1.1962 C.3     
  27 C27           -0.0084     4.2190     0.0186 C.3     
  28 H28            2.3397     7.5707     2.2189 H       
  29 H29            1.2871     6.5145     3.1910 H       
  30 H30           -1.5088     9.8524     2.1600 H       
  31 H31            1.9163     8.2568     4.1551 H       
  32 H32            1.7361    10.0136     5.8695 H       
  33 H33           -1.6859    11.6123     3.8715 H       
  34 H34            0.4132    12.6981     5.7175 H       
  35 H35            0.5123    -0.3556    -0.8948 H       
  36 H36            0.5293    -0.3651     0.8851 H       
  37 H37           -1.5732    -0.5659    -2.1187 H       
  38 H38           -1.5287    -0.5990     2.1458 H       
  39 H39           -3.8842    -1.4141    -2.1035 H       
  40 H40            3.3259     3.3971     0.1071 H       
  41 H41            2.6334     4.6644    -0.9377 H       
  42 H42            2.5292     4.5552     2.1122 H       
  43 H43            3.4663     5.7000     1.1215 H       
  44 H44            1.3490     6.5654     0.1412 H       
  45 H45            0.0545     4.6511     2.1359 H       
  46 H46           -0.8099     5.8657     1.1624 H       
  47 H47           -0.0998     4.7726    -0.9159 H       
  48 H48           -0.8673     3.5589     0.1402 H       
@<TRIPOS>BOND
   1    1   14 1
   2    1    3 1
   3    2    3 am
   4    2   23 1
   5    2   27 1
   6    3   12 2
   7    4    5 1
   8    4   25 1
   9    4   28 1
  10    4   29 1
  11    5    6 1
  12    6    7 ar
  13    6    8 ar
  14    7   11 ar
  15    7   30 1
  16    8    9 ar
  17    8   31 1
  18    9   10 ar
  19    9   32 1
  20   10   11 ar
  21   10   13 1
  22   11   33 1
  23   13   34 1
  24   14   15 1
  25   14   35 1
  26   14   36 1
  27   15   16 ar
  28   15   17 ar
  29   16   20 ar
  30   16   37 1
  31   17   18 ar
  32   17   38 1
  33   18   19 ar
  34   18   21 1
  35   19   20 ar
  36   19   22 1
  37   20   39 1
  38   23   24 1
  39   23   40 1
  40   23   41 1
  41   24   25 1
  42   24   42 1
  43   24   43 1
  44   25   26 1
  45   25   44 1
  46   26   27 1
  47   26   45 1
  48   26   46 1
  49   27   47 1
  50   27   48 1

#	End of record

