#	Name: ASD01010030
#	Creating user name:	WinNT
#	Creation time:	15. 06. 2019 18:56

#	Modifying user name:	WinNT
#	Modification time:	15. 06. 2019 18:56

#	Program:	/corina/corina34_cracker 3.40 0067  02.08.2006

@<TRIPOS>MOLECULE
ASD01010030
  16   16    0    0    0
SMALL
NO_CHARGES


@<TRIPOS>ATOM
   1 C1            -0.0179     1.4698     0.0101 C.2     
   2 C2             0.0021    -0.0041     0.0020 C.ar    
   3 C3             1.2233    -0.6925    -0.0133 C.ar    
   4 O4             2.3929    -0.0050    -0.0208 O.3     
   5 C5             1.2304    -2.0799    -0.0204 C.ar    
   6 C6             0.0386    -2.7786    -0.0127 C.ar    
   7 C7            -1.1708    -2.1017     0.0020 C.ar    
   8 C8            -1.1961    -0.7232     0.0154 C.ar    
   9 O9             1.0260     2.0916     0.0035 O.2     
  10 O10           -1.1939     2.1276     0.0193 O.3     
  11 Br11          -2.7931    -3.0731     0.0110 Br      
  12 Br12           2.8735    -3.0157    -0.0411 Br      
  13 H13            2.7404     0.1895     0.8603 H       
  14 H14            0.0493    -3.8585    -0.0186 H       
  15 H15           -2.1407    -0.1998     0.0314 H       
  16 H16           -1.1564     3.0939     0.0244 H       
@<TRIPOS>BOND
   1    1    2 1
   2    1    9 2
   3    1   10 1
   4    2    3 ar
   5    2    8 ar
   6    3    4 1
   7    3    5 ar
   8    4   13 1
   9    5    6 ar
  10    5   12 1
  11    6    7 ar
  12    6   14 1
  13    7    8 ar
  14    7   11 1
  15    8   15 1
  16   10   16 1

#	End of record

