#	Name: ASD02508400
#	Creating user name:	WinNT
#	Creation time:	15. 06. 2019 20:24

#	Modifying user name:	WinNT
#	Modification time:	15. 06. 2019 20:24

#	Program:	/corina/corina34_cracker 3.40 0067  02.08.2006

@<TRIPOS>MOLECULE
ASD02508400
  36   38    0    0    0
SMALL
NO_CHARGES


@<TRIPOS>ATOM
   1 N1            -0.2073     1.6928     0.3009 N.2     
   2 C2            -0.1699     0.3590     0.4396 C.2     
   3 C3             1.1182    -0.0311     0.4118 C.2     
   4 N4             1.8732     1.1029     0.2518 N.pl3   
   5 C5             1.0095     2.1503     0.1875 C.2     
   6 C6             3.2679     1.1689     0.1706 C.ar    
   7 C7             3.9625     2.0705     0.9695 C.ar    
   8 N8             3.9144     0.3693    -0.6614 N.ar    
   9 C9             5.2289     0.3985    -0.7689 C.ar    
  10 C10            5.9826     1.2722    -0.0102 C.ar    
  11 C11            5.3436     2.1249     0.8792 C.ar    
  12 S12            1.7191    -1.6814     0.5537 S.o2    
  13 O13            1.6663    -2.2412    -0.7513 O.2     
  14 O14            2.9132    -1.6091     1.3207 O.2     
  15 N15            0.6259    -2.5241     1.4686 N.am    
  16 C16            0.3783    -2.1415     2.7905 C.ar    
  17 C17           -0.9260    -2.0765     3.2629 C.ar    
  18 C18           -1.1683    -1.6988     4.5692 C.ar    
  19 C19           -0.1119    -1.3851     5.4075 C.ar    
  20 C20            1.1894    -1.4492     4.9387 C.ar    
  21 C21            1.4366    -1.8315     3.6346 C.ar    
  22 Cl22           3.1105     3.1139     2.0645 Cl      
  23 F23           -0.3512    -1.0154     6.6848 F       
  24 C24            7.4836     1.2954    -0.1421 C.3     
  25 F25            7.8831     0.3474    -1.0902 F       
  26 F26            7.8962     2.5677    -0.5523 F       
  27 F27            8.0651     0.9926     1.0938 F       
  28 H28           -1.0256    -0.2899     0.5542 H       
  29 H29            1.2841     3.1874     0.0629 H       
  30 H30            5.7221    -0.2700    -1.4591 H       
  31 H31            5.9099     2.8176     1.4840 H       
  32 H32            0.1574    -3.2831     1.0875 H       
  33 H33           -1.7503    -2.3207     2.6092 H       
  34 H34           -2.1825    -1.6477     4.9369 H       
  35 H35            2.0118    -1.2038     5.5942 H       
  36 H36            2.4517    -1.8815     3.2694 H       
@<TRIPOS>BOND
   1    1    2 1
   2    1    5 2
   3    2    3 2
   4    2   28 1
   5    3    4 1
   6    3   12 1
   7    4    5 1
   8    4    6 1
   9    5   29 1
  10    6    7 ar
  11    6    8 ar
  12    7   22 1
  13    7   11 ar
  14    8    9 ar
  15    9   10 ar
  16    9   30 1
  17   10   11 ar
  18   10   24 1
  19   11   31 1
  20   12   13 2
  21   12   14 2
  22   12   15 am
  23   15   16 1
  24   15   32 1
  25   16   17 ar
  26   16   21 ar
  27   17   18 ar
  28   17   33 1
  29   18   19 ar
  30   18   34 1
  31   19   20 ar
  32   19   23 1
  33   20   21 ar
  34   20   35 1
  35   21   36 1
  36   24   25 1
  37   24   26 1
  38   24   27 1

#	End of record

