#	Name: ASD08170012
#	Creating user name:	WinNT
#	Creation time:	15. 06. 2019 21:17

#	Modifying user name:	WinNT
#	Modification time:	15. 06. 2019 21:17

#	Program:	/corina/corina34_cracker 3.40 0067  02.08.2006

@<TRIPOS>MOLECULE
ASD08170012
  54   58    0    0    0
SMALL
NO_CHARGES


@<TRIPOS>ATOM
   1 C1            -0.0168     1.3862     0.0097 C.ar    
   2 C2             0.0021    -0.0041     0.0020 C.ar    
   3 C3             1.1854    -0.6764    -0.0623 C.ar    
   4 C4             2.3902     0.0403    -0.1310 C.ar    
   5 C5             2.3794     1.4538     0.0093 C.ar    
   6 C6             1.1455     2.1045     0.0024 C.ar    
   7 C7             3.6018    -0.6296    -0.3899 C.ar    
   8 C8             4.7755     0.0502    -0.4175 C.ar    
   9 C9             4.8256     1.4174    -0.1501 C.ar    
  10 C10            3.6609     2.1441     0.1511 C.ar    
  11 N11            6.0373     2.0922    -0.2223 N.pl3   
  12 C12            6.2675     3.1758     0.7382 C.3     
  13 C13            5.0157     4.0152     0.8495 C.2     
  14 C14            3.7844     3.4750     0.6253 C.2     
  15 C15            5.1701     5.3725     1.1725 C.2     
  16 C16            3.9711     6.2663     1.3335 C.3     
  17 C17            2.8177     5.4260     1.8867 C.3     
  18 C18            2.5440     4.2823     0.9096 C.3     
  19 C19            3.1787     4.8709     3.2644 C.3     
  20 C20            1.5642     6.3015     2.0049 C.3     
  21 O21            6.2843     5.8335     1.3228 O.2     
  22 C22            6.6034     2.5902     2.0856 C.ar    
  23 C23            7.5857     3.1729     2.8655 C.ar    
  24 C24            7.8961     2.6390     4.1006 C.ar    
  25 C25            7.2201     1.5149     4.5596 C.ar    
  26 C26            6.2335     0.9322     3.7731 C.ar    
  27 C27            5.9246     1.4748     2.5415 C.ar    
  28 S28            7.6131     0.8299     6.1347 S.3     
  29 C29            6.4821    -0.5829     6.2589 C.3     
  30 H30           -0.9626     1.9076     0.0260 H       
  31 H31           -0.9249    -0.5536     0.0498 H       
  32 H32            1.1960    -1.7564    -0.0604 H       
  33 H33            1.0760     3.1782    -0.0763 H       
  34 H34            3.5945    -1.6936    -0.5720 H       
  35 H35            5.6888    -0.4766    -0.6518 H       
  36 H36            6.7045     1.8545    -0.8829 H       
  37 H37            7.0943     3.7975     0.3960 H       
  38 H38            4.2040     7.0739     2.0265 H       
  39 H39            3.6912     6.6821     0.3658 H       
  40 H40            2.1452     4.6841    -0.0191 H       
  41 H41            1.8025     3.6281     1.3838 H       
  42 H42            3.3773     5.6963     3.9480 H       
  43 H43            2.3489     4.2754     3.6451 H       
  44 H44            4.0674     4.2451     3.1825 H       
  45 H45            1.2960     6.6867     1.0211 H       
  46 H46            0.7407     5.7058     2.3988 H       
  47 H47            1.7650     7.1344     2.6788 H       
  48 H48            8.1109     4.0462     2.5080 H       
  49 H49            8.6636     3.0943     4.7089 H       
  50 H50            5.7061     0.0585     4.1266 H       
  51 H51            5.1581     1.0225     1.9298 H       
  52 H52            5.4524    -0.2302     6.2006 H       
  53 H53            6.6756    -1.2763     5.4404 H       
  54 H54            6.6388    -1.0912     7.2104 H       
@<TRIPOS>BOND
   1    1    2 ar
   2    1    6 ar
   3    1   30 1
   4    2    3 ar
   5    2   31 1
   6    3    4 ar
   7    3   32 1
   8    4    5 ar
   9    4    7 ar
  10    5    6 ar
  11    5   10 ar
  12    6   33 1
  13    7    8 ar
  14    7   34 1
  15    8    9 ar
  16    8   35 1
  17    9   10 ar
  18    9   11 1
  19   10   14 1
  20   11   12 1
  21   11   36 1
  22   12   13 1
  23   12   22 1
  24   12   37 1
  25   13   14 2
  26   13   15 1
  27   14   18 1
  28   15   16 1
  29   15   21 2
  30   16   17 1
  31   16   38 1
  32   16   39 1
  33   17   18 1
  34   17   19 1
  35   17   20 1
  36   18   40 1
  37   18   41 1
  38   19   42 1
  39   19   43 1
  40   19   44 1
  41   20   45 1
  42   20   46 1
  43   20   47 1
  44   22   23 ar
  45   22   27 ar
  46   23   24 ar
  47   23   48 1
  48   24   25 ar
  49   24   49 1
  50   25   26 ar
  51   25   28 1
  52   26   27 ar
  53   26   50 1
  54   27   51 1
  55   28   29 1
  56   29   52 1
  57   29   53 1
  58   29   54 1

#	End of record

