#	Name: ASD01912807
#	Creating user name:	WinNT
#	Creation time:	15. 06. 2019 20:00

#	Modifying user name:	WinNT
#	Modification time:	15. 06. 2019 20:00

#	Program:	/corina/corina34_cracker 3.40 0067  02.08.2006

@<TRIPOS>MOLECULE
ASD01912807
  42   45    0    0    0
SMALL
NO_CHARGES


@<TRIPOS>ATOM
   1 C1            -0.0165     1.3669     0.0096 C.2     
   2 N2             0.0021    -0.0041     0.0020 N.pl3   
   3 C3            -1.2021    -0.6918     0.0094 C.2     
   4 C4            -2.3630    -0.0492     0.0236 C.2     
   5 N5            -2.4358     1.3306     0.0317 N.am    
   6 C6            -1.3019     2.0667     0.0309 C.2     
   7 C7             1.3015     1.7836    -0.0008 C.2     
   8 C8             2.0550     0.6111    -0.0143 C.2     
   9 N9             1.2243    -0.4045    -0.0118 N.2     
  10 O10           -1.3490     3.2837     0.0379 O.2     
  11 C11           -3.6839     1.9663     0.0466 C.ar    
  12 C12            3.5595     0.5250    -0.0295 C.3     
  13 O13            4.1121     1.8428    -0.0282 O.3     
  14 C14            5.4650     1.9434    -0.0410 C.ar    
  15 C15            6.0614     3.1976    -0.0404 C.ar    
  16 C16            7.4427     3.2865    -0.0535 C.ar    
  17 C17            8.1815     2.1118    -0.0669 C.ar    
  18 C18            7.5217     0.8987    -0.0666 C.ar    
  19 N19            6.2035     0.8460    -0.0485 N.ar    
  20 C20           -4.2902     2.2807     1.2546 C.ar    
  21 C21           -4.3175     2.2898    -1.1514 C.ar    
  22 C22           -5.5521     2.9186    -1.1302 C.ar    
  23 C23           -6.1523     3.2234     0.0771 C.ar    
  24 C24           -5.5214     2.9077     1.2666 C.ar    
  25 O25           -3.7257     1.9898    -2.3380 O.3     
  26 C26           -4.4336     2.3511    -3.5257 C.3     
  27 H27           -1.1950    -1.7717     0.0032 H       
  28 H28           -3.2786    -0.6220     0.0285 H       
  29 H29            1.6685     2.7994     0.0006 H       
  30 H30            3.9016    -0.0133     0.8543 H       
  31 H31            3.8841    -0.0042    -0.9255 H       
  32 H32            5.4556     4.0917    -0.0302 H       
  33 H33            7.9343     4.2482    -0.0538 H       
  34 H34            9.2609     2.1459    -0.0777 H       
  35 H35            8.0918    -0.0184    -0.0774 H       
  36 H36           -3.8000     2.0351     2.1851 H       
  37 H37           -6.0454     3.1709    -2.0573 H       
  38 H38           -7.1144     3.7138     0.0915 H       
  39 H39           -5.9945     3.1475     2.2074 H       
  40 H40           -5.3979     1.8433    -3.5426 H       
  41 H41           -4.5906     3.4296    -3.5411 H       
  42 H42           -3.8522     2.0560    -4.3992 H       
@<TRIPOS>BOND
   1    1    2 1
   2    1    7 2
   3    1    6 1
   4    2    3 1
   5    2    9 1
   6    3    4 2
   7    3   27 1
   8    4    5 1
   9    4   28 1
  10    5    6 am
  11    5   11 1
  12    6   10 2
  13    7    8 1
  14    7   29 1
  15    8    9 2
  16    8   12 1
  17   11   21 ar
  18   11   20 ar
  19   12   13 1
  20   12   30 1
  21   12   31 1
  22   13   14 1
  23   14   15 ar
  24   14   19 ar
  25   15   16 ar
  26   15   32 1
  27   16   17 ar
  28   16   33 1
  29   17   18 ar
  30   17   34 1
  31   18   19 ar
  32   18   35 1
  33   20   24 ar
  34   20   36 1
  35   21   22 ar
  36   21   25 1
  37   22   23 ar
  38   22   37 1
  39   23   24 ar
  40   23   38 1
  41   24   39 1
  42   25   26 1
  43   26   40 1
  44   26   41 1
  45   26   42 1

#	End of record

