#	Name: ASD01900785
#	Creating user name:	WinNT
#	Creation time:	15. 06. 2019 19:52

#	Modifying user name:	WinNT
#	Modification time:	15. 06. 2019 19:52

#	Program:	/corina/corina34_cracker 3.40 0067  02.08.2006

@<TRIPOS>MOLECULE
ASD01900785
  59   64    0    0    0
SMALL
NO_CHARGES


@<TRIPOS>ATOM
   1 C1            -0.0159     1.4086    -0.1141 C.ar    
   2 C2             0.0117     0.0195    -0.1182 C.ar    
   3 C3            -1.1603    -0.7072    -0.0664 C.ar    
   4 C4            -2.3833    -0.0522    -0.0091 C.ar    
   5 C5            -2.4090     1.3491    -0.0094 C.ar    
   6 O6            -3.5357    -0.7543     0.0537 O.3     
   7 C7            -4.7272    -0.1808    -0.1861 C.2     
   8 C8            -4.9048     1.1620    -0.2023 C.2     
   9 C9            -3.7318     2.0226     0.0390 C.2     
  10 C10           -5.8918    -1.0510    -0.4431 C.2     
  11 N11           -7.1164    -0.4756    -0.6898 N.2     
  12 C12           -8.2316    -1.0983    -0.3906 C.2     
  13 C13           -8.0508    -2.4485     0.1934 C.3     
  14 C14           -6.9817    -3.1881    -0.6809 C.3     
  15 C15           -5.7244    -2.4019    -0.4354 C.2     
  16 C16           -1.2278     2.0774    -0.0543 C.ar    
  17 C17           -9.1612    -3.3796     0.4482 C.2     
  18 C18           -8.8211    -4.6709     0.5280 C.2     
  19 S19           -7.0622    -4.7790     0.2202 S.3     
  20 O20            1.1469     2.1118    -0.1631 O.3     
  21 C21            2.3594     1.3575    -0.2174 C.3     
  22 C22            3.5529     2.3134    -0.2672 C.3     
  23 N23            3.6240     3.0738     0.9877 N.3     
  24 C24            3.9297     2.1928     2.1193 C.3     
  25 C25            4.0983     2.9958     3.3824 C.ar    
  26 C26            4.3199     4.3564     3.3554 C.ar    
  27 C27            4.3998     5.1192     2.0579 C.3     
  28 C28            4.6228     4.1506     0.8961 C.3     
  29 C29            4.0267     2.3348     4.5996 C.ar    
  30 C30            4.1779     3.0311     5.7821 C.ar    
  31 C31            4.4029     4.3946     5.7542 C.ar    
  32 C32            4.4734     5.0543     4.5433 C.ar    
  33 N33           -3.8496     3.3057     0.2814 N.2     
  34 O34           -2.7125     4.0635     0.6525 O.3     
  35 H35            0.9594    -0.4965    -0.1628 H       
  36 H36           -1.1262    -1.7867    -0.0707 H       
  37 H37           -5.8788     1.5906    -0.3866 H       
  38 H38           -9.2052    -0.6613    -0.5565 H       
  39 H39           -7.5719    -2.2971     1.1608 H       
  40 H40           -7.2411    -3.2585    -1.7372 H       
  41 H41           -4.7672    -2.8707    -0.2609 H       
  42 H42           -1.2538     3.1570    -0.0506 H       
  43 H43          -10.1811    -3.0435     0.5632 H       
  44 H44           -9.4856    -5.4957     0.7390 H       
  45 H45            2.4352     0.7274     0.6689 H       
  46 H46            2.3580     0.7311    -1.1094 H       
  47 H47            4.4714     1.7413    -0.3979 H       
  48 H48            3.4319     3.0024    -1.1031 H       
  49 H49            3.1148     1.4811     2.2516 H       
  50 H50            4.8516     1.6489     1.9130 H       
  51 H51            3.4692     5.6645     1.9009 H       
  52 H52            5.2283     5.8260     2.1041 H       
  53 H53            5.6251     3.7269     0.9597 H       
  54 H54            4.5052     4.6797    -0.0496 H       
  55 H55            3.8513     1.2694     4.6225 H       
  56 H56            4.1202     2.5115     6.7271 H       
  57 H57            4.5228     4.9425     6.6771 H       
  58 H58            4.6494     6.1197     4.5215 H       
  59 H59           -2.8980     4.9994     0.8105 H       
@<TRIPOS>BOND
   1    1    2 ar
   2    1   20 1
   3    1   16 ar
   4    2    3 ar
   5    2   35 1
   6    3    4 ar
   7    3   36 1
   8    4    5 ar
   9    4    6 1
  10    5   16 ar
  11    5    9 1
  12    6    7 1
  13    7    8 2
  14    7   10 1
  15    8    9 1
  16    8   37 1
  17    9   33 2
  18   10   11 1
  19   10   15 2
  20   11   12 2
  21   12   13 1
  22   12   38 1
  23   13   14 1
  24   13   17 1
  25   13   39 1
  26   14   15 1
  27   14   19 1
  28   14   40 1
  29   15   41 1
  30   16   42 1
  31   17   18 2
  32   17   43 1
  33   18   19 1
  34   18   44 1
  35   20   21 1
  36   21   22 1
  37   21   45 1
  38   21   46 1
  39   22   23 1
  40   22   47 1
  41   22   48 1
  42   23   24 1
  43   23   28 1
  44   24   25 1
  45   24   49 1
  46   24   50 1
  47   25   26 ar
  48   25   29 ar
  49   26   27 1
  50   26   32 ar
  51   27   28 1
  52   27   51 1
  53   27   52 1
  54   28   53 1
  55   28   54 1
  56   29   30 ar
  57   29   55 1
  58   30   31 ar
  59   30   56 1
  60   31   32 ar
  61   31   57 1
  62   32   58 1
  63   33   34 1
  64   34   59 1

#	End of record

