#	Name: ASD06350004
#	Creating user name:	WinNT
#	Creation time:	15. 06. 2019 21:06

#	Modifying user name:	WinNT
#	Modification time:	15. 06. 2019 21:06

#	Program:	/corina/corina34_cracker 3.40 0067  02.08.2006

@<TRIPOS>MOLECULE
ASD06350004
  23   24    0    0    0
SMALL
NO_CHARGES


@<TRIPOS>ATOM
   1 N1            -0.4422     1.3710     0.0978 N.pl3   
   2 C2            -0.3155    -0.0219     0.0680 C.ar    
   3 C3             0.9311    -0.6018    -0.1249 C.ar    
   4 C4             1.0565    -1.9775    -0.1549 C.ar    
   5 C5            -0.0621    -2.7799     0.0075 C.ar    
   6 C6            -1.3105    -2.2013     0.2011 C.ar    
   7 C7            -1.4360    -0.8251     0.2369 C.ar    
   8 F8            -2.4006    -2.9835     0.3593 F       
   9 O9             0.0623    -4.1342    -0.0232 O.3     
  10 C10           -0.1476    -4.7658    -1.2035 C.ar    
  11 N11           -0.4629    -4.0730    -2.2924 N.ar    
  12 C12           -0.6676    -4.6822    -3.4429 C.ar    
  13 N13           -0.5698    -5.9907    -3.5634 N.ar    
  14 C14           -0.2588    -6.7502    -2.5214 C.ar    
  15 C15           -0.0303    -6.1513    -1.2950 C.ar    
  16 Cl16          -0.1336    -8.4729    -2.6955 Cl      
  17 H17            0.3411     1.9318    -0.0163 H       
  18 H18           -1.3138     1.7761     0.2286 H       
  19 H19            1.8032     0.0226    -0.2519 H       
  20 H20            2.0265    -2.4279    -0.3054 H       
  21 H21           -2.4059    -0.3746     0.3877 H       
  22 H22           -0.9230    -4.0927    -4.3110 H       
  23 H23            0.2251    -6.7436    -0.4288 H       
@<TRIPOS>BOND
   1    1    2 1
   2    1   17 1
   3    1   18 1
   4    2    3 ar
   5    2    7 ar
   6    3    4 ar
   7    3   19 1
   8    4    5 ar
   9    4   20 1
  10    5    6 ar
  11    5    9 1
  12    6    7 ar
  13    6    8 1
  14    7   21 1
  15    9   10 1
  16   10   11 ar
  17   10   15 ar
  18   11   12 ar
  19   12   13 ar
  20   12   22 1
  21   13   14 ar
  22   14   15 ar
  23   14   16 1
  24   15   23 1

#	End of record

