#	Name: ASD06020085
#	Creating user name:	WinNT
#	Creation time:	15. 06. 2019 21:04

#	Modifying user name:	WinNT
#	Modification time:	15. 06. 2019 21:04

#	Program:	/corina/corina34_cracker 3.40 0067  02.08.2006

@<TRIPOS>MOLECULE
ASD06020085
  38   41    0    0    0
SMALL
NO_CHARGES


@<TRIPOS>ATOM
   1 C1            -0.0166     1.3952     0.0025 C.ar    
   2 C2             0.0031    -0.0035     0.0023 C.ar    
   3 C3             1.2299    -0.6764    -0.0204 C.ar    
   4 C4             2.4026     0.1209    -0.0422 C.ar    
   5 C5             2.2924     1.4755    -0.0403 C.ar    
   6 N6             1.1144     2.0790    -0.0186 N.ar    
   7 S7            -1.2859    -1.2018     0.0263 S.3     
   8 C8            -0.0955    -2.4967     0.0044 C.2     
   9 N9             1.1001    -2.0038    -0.0178 N.2     
  10 N10           -1.2335     2.0703     0.0191 N.pl3   
  11 C11           -0.4154    -3.9394     0.0105 C.ar    
  12 C12            0.6115    -4.8862    -0.0085 C.ar    
  13 C13            0.3052    -6.2324    -0.0027 C.ar    
  14 C14           -1.0151    -6.6455     0.0218 C.ar    
  15 C15           -2.0377    -5.7151     0.0401 C.ar    
  16 C16           -1.7467    -4.3634     0.0409 C.ar    
  17 F17           -2.7466    -3.4552     0.0654 F       
  18 Cl18           2.2691    -4.3712    -0.0397 Cl      
  19 C19           -1.2583     3.4567     0.1318 C.ar    
  20 C20           -2.4666     4.1437     0.0370 C.ar    
  21 N21           -0.1322     4.1278     0.3352 N.ar    
  22 N22           -2.4856     5.4584     0.1443 N.ar    
  23 C23           -1.3596     6.1239     0.3417 C.ar    
  24 C24           -0.1599     5.4455     0.4417 C.ar    
  25 C25           -1.3859     7.6258     0.4633 C.3     
  26 N26           -1.3421     8.2263    -0.8766 N.3     
  27 H27            3.3767    -0.3453    -0.0598 H       
  28 H28            3.1901     2.0758    -0.0566 H       
  29 H29           -2.0643     1.5741    -0.0478 H       
  30 H30            1.0985    -6.9651    -0.0177 H       
  31 H31           -1.2481    -7.7001     0.0262 H       
  32 H32           -3.0660    -6.0449     0.0585 H       
  33 H33           -3.3862     3.6009    -0.1246 H       
  34 H34            0.7565     5.9924     0.6074 H       
  35 H35           -2.3009     7.9334     0.9695 H       
  36 H36           -0.5224     7.9589     1.0391 H       
  37 H37           -2.0967     7.8829    -1.4517 H       
  38 H38           -1.3587     9.2337    -0.8221 H       
@<TRIPOS>BOND
   1    1    2 ar
   2    1    6 ar
   3    1   10 1
   4    2    3 ar
   5    2    7 1
   6    3    4 ar
   7    3    9 1
   8    4    5 ar
   9    4   27 1
  10    5    6 ar
  11    5   28 1
  12    7    8 1
  13    8    9 2
  14    8   11 1
  15   10   19 1
  16   10   29 1
  17   11   12 ar
  18   11   16 ar
  19   12   13 ar
  20   12   18 1
  21   13   14 ar
  22   13   30 1
  23   14   15 ar
  24   14   31 1
  25   15   16 ar
  26   15   32 1
  27   16   17 1
  28   19   20 ar
  29   19   21 ar
  30   20   22 ar
  31   20   33 1
  32   21   24 ar
  33   22   23 ar
  34   23   24 ar
  35   23   25 1
  36   24   34 1
  37   25   26 1
  38   25   35 1
  39   25   36 1
  40   26   37 1
  41   26   38 1

#	End of record

