#	Name: ASD01815969
#	Creating user name:	WinNT
#	Creation time:	15. 06. 2019 19:34

#	Modifying user name:	WinNT
#	Modification time:	15. 06. 2019 19:34

#	Program:	/corina/corina34_cracker 3.40 0067  02.08.2006

@<TRIPOS>MOLECULE
ASD01815969
  54   59    0    0    0
SMALL
NO_CHARGES


@<TRIPOS>ATOM
   1 C1            -0.0167     1.3813     0.0096 C.ar    
   2 C2             0.0021    -0.0041     0.0020 C.ar    
   3 C3             1.1984    -0.6909    -0.0131 C.ar    
   4 C4             2.4015     0.0059    -0.0209 C.ar    
   5 C5             2.3790     1.4106    -0.0132 C.ar    
   6 C6             1.1663     2.0916     0.0022 C.ar    
   7 N7             3.6053    -0.6772    -0.0356 N.pl3   
   8 C8             4.7970    -0.0586    -0.0433 C.2     
   9 C9             4.9000     1.3103    -0.0373 C.2     
  10 C10            3.6670     2.1301    -0.0217 C.2     
  11 C11            5.9971     2.2729    -0.0432 C.2     
  12 N12            5.4245     3.4960    -0.0323 N.am    
  13 N13            4.0323     3.3799    -0.0195 N.2     
  14 C14            6.1264     4.7082    -0.0333 C.ar    
  15 O15            7.1914     2.0229    -0.0548 O.2     
  16 C16            3.5779    -2.1419    -0.0427 C.3     
  17 C17            3.5552    -2.6371    -1.4659 C.ar    
  18 C18            4.7416    -2.8865    -2.1299 C.ar    
  19 C19            4.7208    -3.3406    -3.4354 C.ar    
  20 C20            3.5135    -3.5457    -4.0766 C.ar    
  21 C21            2.3270    -3.2972    -3.4123 C.ar    
  22 C22            2.3478    -2.8472    -2.1054 C.ar    
  23 C23            6.5546     5.2634    -1.2317 C.ar    
  24 C24            7.2466     6.4588    -1.2297 C.ar    
  25 C25            7.5142     7.1036    -0.0359 C.ar    
  26 C26            7.0900     6.5550     1.1603 C.ar    
  27 C27            3.4908    -4.0399    -5.5001 C.3     
  28 C28            2.7784    -3.0237    -6.4140 C.3     
  29 N29            1.6289    -3.7720    -6.9445 N.pl3   
  30 C30            1.6423    -5.0528    -6.4283 C.2     
  31 C31            2.6440    -5.2878    -5.6153 C.2     
  32 C32            6.3912     5.3614     1.1656 C.ar    
  33 F33            5.9763     4.8253     2.3342 F       
  34 H34           -0.9602     1.9068     0.0170 H       
  35 H35           -0.9289    -0.5516     0.0083 H       
  36 H36            1.2004    -1.7709    -0.0186 H       
  37 H37            1.1506     3.1715     0.0077 H       
  38 H38            5.6983    -0.6536    -0.0540 H       
  39 H39            4.4657    -2.5244     0.4609 H       
  40 H40            2.6861    -2.4912     0.4778 H       
  41 H41            5.6849    -2.7262    -1.6289 H       
  42 H42            5.6478    -3.5348    -3.9544 H       
  43 H43            1.3838    -3.4571    -3.9134 H       
  44 H44            1.4208    -2.6530    -1.5863 H       
  45 H45            6.3471     4.7607    -2.1648 H       
  46 H46            7.5796     6.8905    -2.1620 H       
  47 H47            8.0561     8.0378    -0.0379 H       
  48 H48            7.3009     7.0609     2.0909 H       
  49 H49            4.5041    -4.2285    -5.8547 H       
  50 H50            2.4411    -2.1619    -5.8381 H       
  51 H51            3.4372    -2.7099    -7.2238 H       
  52 H52            0.9657    -3.4212    -7.5593 H       
  53 H53            0.8954    -5.7939    -6.6722 H       
  54 H54            2.8342    -6.2228    -5.1093 H       
@<TRIPOS>BOND
   1    1    2 ar
   2    1    6 ar
   3    1   34 1
   4    2    3 ar
   5    2   35 1
   6    3    4 ar
   7    3   36 1
   8    4    5 ar
   9    4    7 1
  10    5    6 ar
  11    5   10 1
  12    6   37 1
  13    7    8 1
  14    7   16 1
  15    8    9 2
  16    8   38 1
  17    9   10 1
  18    9   11 1
  19   10   13 2
  20   11   12 am
  21   11   15 2
  22   12   13 1
  23   12   14 1
  24   14   23 ar
  25   14   32 ar
  26   16   17 1
  27   16   39 1
  28   16   40 1
  29   17   18 ar
  30   17   22 ar
  31   18   19 ar
  32   18   41 1
  33   19   20 ar
  34   19   42 1
  35   20   21 ar
  36   20   27 1
  37   21   22 ar
  38   21   43 1
  39   22   44 1
  40   23   24 ar
  41   23   45 1
  42   24   25 ar
  43   24   46 1
  44   25   26 ar
  45   25   47 1
  46   26   32 ar
  47   26   48 1
  48   27   28 1
  49   27   31 1
  50   27   49 1
  51   28   29 1
  52   28   50 1
  53   28   51 1
  54   29   30 1
  55   29   52 1
  56   30   31 2
  57   30   53 1
  58   31   54 1
  59   32   33 1

#	End of record

