#	Name: ASD01911017
#	Creating user name:	WinNT
#	Creation time:	15. 06. 2019 19:56

#	Modifying user name:	WinNT
#	Modification time:	15. 06. 2019 19:56

#	Program:	/corina/corina34_cracker 3.40 0067  02.08.2006

@<TRIPOS>MOLECULE
ASD01911017
  55   59    0    0    0
SMALL
NO_CHARGES


@<TRIPOS>ATOM
   1 N1             0.1424     1.3738    -0.1997 N.3     
   2 C2             0.0810    -0.0919    -0.1232 C.3     
   3 C3            -1.3650    -0.5263     0.1387 C.3     
   4 N4            -2.2279     0.0797    -0.8868 N.am    
   5 C5            -2.1229     1.5285    -1.1170 C.3     
   6 C6            -0.6471     1.8820    -1.3294 C.3     
   7 C7            -3.0915    -0.6728    -1.5969 C.2     
   8 C8            -4.0350    -0.0292    -2.5325 C.ar    
   9 C9            -4.3090    -0.6233    -3.7685 C.ar    
  10 C10           -5.1887    -0.0270    -4.6457 C.ar    
  11 C11           -5.8092     1.1675    -4.3097 C.ar    
  12 C12           -5.5417     1.7740    -3.0712 C.ar    
  13 C13           -4.6574     1.1679    -2.1814 C.ar    
  14 C14           -6.1803     3.0072    -2.7218 C.1     
  15 O15           -3.0936    -1.8817    -1.4672 O.2     
  16 C16           -6.7039     4.0182    -2.4354 C.1     
  17 C17           -7.3425     5.2513    -2.0861 C.ar    
  18 N18           -7.0840     5.8192    -0.9119 N.ar    
  19 C19           -7.6513     6.9530    -0.5543 C.ar    
  20 C20           -8.5423     7.5974    -1.3926 C.ar    
  21 C21           -8.8416     7.0400    -2.6289 C.ar    
  22 C22           -8.2288     5.8526    -2.9842 C.ar    
  23 C23            1.4566     1.8133    -0.2737 C.2     
  24 O24           -6.6738     1.7500    -5.1771 O.3     
  25 C25            1.9054     3.2113    -0.3620 C.ar    
  26 C26            3.3071     3.1748    -0.4154 C.ar    
  27 O27            3.6757     1.8784    -0.3644 O.3     
  28 N28            2.5241     1.0641    -0.2722 N.2     
  29 C29            1.2394     4.4366    -0.3972 C.ar    
  30 C30            1.9561     5.5973    -0.4837 C.ar    
  31 C31            3.3421     5.5662    -0.5372 C.ar    
  32 C32            4.0182     4.3657    -0.5036 C.ar    
  33 C33           -6.8984     1.0784    -6.4183 C.3     
  34 F34           -7.4163    -0.1975    -6.1712 F       
  35 F35           -7.8098     1.8109    -7.1865 F       
  36 F36           -5.6891     0.9645    -7.1124 F       
  37 H37            0.4245    -0.5200    -1.0649 H       
  38 H38            0.7184    -0.4407     0.6893 H       
  39 H39           -1.4369    -1.6124     0.0825 H       
  40 H40           -1.6762    -0.1865     1.1265 H       
  41 H41           -2.6959     1.8009    -2.0034 H       
  42 H42           -2.5070     2.0659    -0.2499 H       
  43 H43           -0.5377     2.9647    -1.3918 H       
  44 H44           -0.2934     1.4265    -2.2544 H       
  45 H45           -3.8289    -1.5528    -4.0368 H       
  46 H46           -5.3958    -0.4912    -5.5986 H       
  47 H47           -4.4472     1.6288    -1.2276 H       
  48 H48           -7.4175     7.3852     0.4074 H       
  49 H49           -9.0018     8.5262    -1.0884 H       
  50 H50           -9.5346     7.5257    -3.3000 H       
  51 H51           -8.4385     5.3918    -3.9382 H       
  52 H52            0.1606     4.4680    -0.3566 H       
  53 H53            1.4397     6.5455    -0.5109 H       
  54 H54            3.8960     6.4908    -0.6058 H       
  55 H55            5.0973     4.3504    -0.5460 H       
@<TRIPOS>BOND
   1    1    2 1
   2    1   23 1
   3    1    6 1
   4    2    3 1
   5    2   37 1
   6    2   38 1
   7    3    4 1
   8    3   39 1
   9    3   40 1
  10    4    5 1
  11    4    7 am
  12    5    6 1
  13    5   41 1
  14    5   42 1
  15    6   43 1
  16    6   44 1
  17    7    8 1
  18    7   15 2
  19    8    9 ar
  20    8   13 ar
  21    9   10 ar
  22    9   45 1
  23   10   11 ar
  24   10   46 1
  25   11   12 ar
  26   11   24 1
  27   12   13 ar
  28   12   14 1
  29   13   47 1
  30   14   16 3
  31   16   17 1
  32   17   18 ar
  33   17   22 ar
  34   18   19 ar
  35   19   20 ar
  36   19   48 1
  37   20   21 ar
  38   20   49 1
  39   21   22 ar
  40   21   50 1
  41   22   51 1
  42   23   25 1
  43   23   28 2
  44   24   33 1
  45   25   26 ar
  46   25   29 ar
  47   26   27 1
  48   26   32 ar
  49   27   28 1
  50   29   30 ar
  51   29   52 1
  52   30   31 ar
  53   30   53 1
  54   31   32 ar
  55   31   54 1
  56   32   55 1
  57   33   34 1
  58   33   35 1
  59   33   36 1

#	End of record

