#	Name: ASD01150206
#	Creating user name:	WinNT
#	Creation time:	15. 06. 2019 19:03

#	Modifying user name:	WinNT
#	Modification time:	15. 06. 2019 19:03

#	Program:	/corina/corina34_cracker 3.40 0067  02.08.2006

@<TRIPOS>MOLECULE
ASD01150206
  26   26    0    0    0
SMALL
NO_CHARGES


@<TRIPOS>ATOM
   1 N1            -0.0161     1.3368     0.0094 N.pl3   
   2 C2             0.0021    -0.0041     0.0020 C.2     
   3 C3            -1.3102    -0.4385     0.0122 C.2     
   4 C4            -2.1317     0.7185     0.0263 C.2     
   5 N5            -1.3473     1.7670     0.0305 N.2     
   6 C6             1.1625     2.2068     0.0028 C.3     
   7 C7             1.0702     3.1817    -1.1728 C.3     
   8 C8            -1.7683    -1.8357     0.0086 C.2     
   9 O9            -0.8691    -2.8397    -0.0058 O.3     
  10 O10           -2.9579    -2.0853     0.0187 O.2     
  11 C11           -1.3931    -4.1938    -0.0085 C.3     
  12 C12           -0.2319    -5.1900    -0.0254 C.3     
  13 N13           -3.5264     0.7357     0.0390 N.pl3   
  14 H14            0.8818    -0.6305    -0.0101 H       
  15 H15            1.2058     2.7670     0.9368 H       
  16 H16            2.0619     1.5995    -0.0986 H       
  17 H17            0.1708     3.7891    -1.0713 H       
  18 H18            1.9471     3.8291    -1.1777 H       
  19 H19            1.0269     2.6215    -2.1068 H       
  20 H20           -1.9948    -4.3524     0.8865 H       
  21 H21           -2.0120    -4.3422    -0.8934 H       
  22 H22            0.3869    -5.0416     0.8595 H       
  23 H23           -0.6253    -6.2065    -0.0274 H       
  24 H24            0.3698    -5.0314    -0.9203 H       
  25 H25           -4.0218    -0.0982     0.0387 H       
  26 H26           -4.0009     1.5817     0.0481 H       
@<TRIPOS>BOND
   1    1    2 1
   2    1    6 1
   3    1    5 1
   4    2    3 2
   5    2   14 1
   6    3    4 1
   7    3    8 1
   8    4    5 2
   9    4   13 1
  10    6    7 1
  11    6   15 1
  12    6   16 1
  13    7   17 1
  14    7   18 1
  15    7   19 1
  16    8    9 1
  17    8   10 2
  18    9   11 1
  19   11   12 1
  20   11   20 1
  21   11   21 1
  22   12   22 1
  23   12   23 1
  24   12   24 1
  25   13   25 1
  26   13   26 1

#	End of record

