#	Name: ASD01910184
#	Creating user name:	WinNT
#	Creation time:	15. 06. 2019 19:55

#	Modifying user name:	WinNT
#	Modification time:	15. 06. 2019 19:55

#	Program:	/corina/corina34_cracker 3.40 0067  02.08.2006

@<TRIPOS>MOLECULE
ASD01910184
  47   50    0    0    0
SMALL
NO_CHARGES


@<TRIPOS>ATOM
   1 C1            -0.2188     1.3750     0.0962 C.ar    
   2 C2             0.0372     0.0376     0.3288 C.ar    
   3 C3             1.3444    -0.4331     0.3192 C.ar    
   4 C4             2.3933     0.4416     0.0756 C.ar    
   5 C5             2.1329     1.7847    -0.1577 C.ar    
   6 C6             0.8236     2.2490    -0.1467 C.ar    
   7 N7             3.1874     2.6698    -0.4032 N.am    
   8 C8             4.2614     2.2599    -1.1068 C.2     
   9 C9             5.3286     3.2220    -1.4541 C.ar    
  10 N10            1.6028    -1.7878     0.5554 N.am    
  11 C11            0.7247    -2.7232     0.1426 C.2     
  12 C12            6.4420     2.8006    -2.1826 C.ar    
  13 C13            7.4347     3.7033    -2.5043 C.ar    
  14 C14            7.3291     5.0237    -2.1060 C.ar    
  15 C15            6.2272     5.4490    -1.3829 C.ar    
  16 C16            5.2243     4.5570    -1.0597 C.ar    
  17 O17           -0.2424    -2.3995    -0.5139 O.2     
  18 O18            4.3524     1.0991    -1.4559 O.2     
  19 C19            0.9444    -4.1714     0.4968 C.3     
  20 Cl20           6.1036     7.1082    -0.8876 Cl      
  21 C21           -0.0878    -5.1850    -0.0013 C.3     
  22 C22            1.3012    -5.1306    -0.6406 C.3     
  23 C23           -0.3973    -6.3589     0.8915 C.ar    
  24 C24           -1.6857    -6.5563     1.3520 C.ar    
  25 C25           -1.9696    -7.6331     2.1710 C.ar    
  26 C26           -0.9653    -8.5127     2.5292 C.ar    
  27 C27            0.3229    -8.3159     2.0681 C.ar    
  28 C28            0.6060    -7.2415     1.2455 C.ar    
  29 H29           -1.2361     1.7375     0.0997 H       
  30 H30           -0.7797    -0.6428     0.5187 H       
  31 H31            3.4103     0.0782     0.0680 H       
  32 H32            0.6202     3.2939    -0.3286 H       
  33 H33            3.1459     3.5788    -0.0671 H       
  34 H34            2.4138    -2.0537     1.0162 H       
  35 H35            6.5265     1.7699    -2.4938 H       
  36 H36            8.2966     3.3780    -3.0680 H       
  37 H37            8.1094     5.7259    -2.3598 H       
  38 H38            4.3652     4.8893    -0.4957 H       
  39 H39            1.3994    -4.3535     1.4704 H       
  40 H40           -0.9258    -4.8043    -0.5852 H       
  41 H41            1.3769    -4.7141    -1.6451 H       
  42 H42            1.9911    -5.9439    -0.4154 H       
  43 H43           -2.4704    -5.8690     1.0721 H       
  44 H44           -2.9761    -7.7869     2.5313 H       
  45 H45           -1.1869    -9.3536     3.1697 H       
  46 H46            1.1077    -9.0029     2.3482 H       
  47 H47            1.6124    -7.0877     0.8852 H       
@<TRIPOS>BOND
   1    1    2 ar
   2    1    6 ar
   3    1   29 1
   4    2    3 ar
   5    2   30 1
   6    3    4 ar
   7    3   10 1
   8    4    5 ar
   9    4   31 1
  10    5    6 ar
  11    5    7 1
  12    6   32 1
  13    7    8 am
  14    7   33 1
  15    8    9 1
  16    8   18 2
  17    9   12 ar
  18    9   16 ar
  19   10   11 am
  20   10   34 1
  21   11   17 2
  22   11   19 1
  23   12   13 ar
  24   12   35 1
  25   13   14 ar
  26   13   36 1
  27   14   15 ar
  28   14   37 1
  29   15   16 ar
  30   15   20 1
  31   16   38 1
  32   19   21 1
  33   19   22 1
  34   19   39 1
  35   21   22 1
  36   21   23 1
  37   21   40 1
  38   22   41 1
  39   22   42 1
  40   23   24 ar
  41   23   28 ar
  42   24   25 ar
  43   24   43 1
  44   25   26 ar
  45   25   44 1
  46   26   27 ar
  47   26   45 1
  48   27   28 ar
  49   27   46 1
  50   28   47 1

#	End of record

