#	Name: ASD04882494
#	Creating user name:	WinNT
#	Creation time:	15. 06. 2019 20:54

#	Modifying user name:	WinNT
#	Modification time:	15. 06. 2019 20:54

#	Program:	/corina/corina34_cracker 3.40 0067  02.08.2006

@<TRIPOS>MOLECULE
ASD04882494
  96  101    0    0    0
SMALL
NO_CHARGES


@<TRIPOS>ATOM
   1 C1            -0.0215     1.4012    -0.0092 C.ar    
   2 C2            -0.0115     0.0036    -0.0052 C.ar    
   3 C3            -1.2094    -0.7019    -0.0160 C.ar    
   4 C4            -2.4097    -0.0268    -0.0310 C.ar    
   5 C5            -2.4267     1.3708    -0.0350 C.ar    
   6 C6            -1.2239     2.0825    -0.0185 C.ar    
   7 N7             1.1998    -0.6830     0.0090 N.3     
   8 C8             1.3075    -1.5362     1.2007 C.3     
   9 C9             1.3717    -1.4731    -1.2181 C.3     
  10 C10            2.7456    -2.1474    -1.1992 C.3     
  11 N11            2.8533    -3.0005    -0.0075 N.3     
  12 C12            2.6814    -2.2105     1.2196 C.3     
  13 C13           -3.7126     2.0937    -0.0516 C.2     
  14 O14           -3.7265     3.3096    -0.0551 O.2     
  15 N15           -4.8720     1.4065    -0.0628 N.am    
  16 N16            1.1866     2.1110     0.0021 N.am    
  17 C17            4.0684    -3.6893     0.0068 C.ar    
  18 C18            1.2296     3.3600     0.5068 C.2     
  19 C19            2.5162     4.0732     0.6000 C.2     
  20 O20            0.2069     3.8985     0.8853 O.2     
  21 N21            3.7329     3.5991     0.2178 N.2     
  22 C22            4.6244     4.5145     0.4539 C.2     
  23 O23            4.0245     5.5887     0.9859 O.3     
  24 C24            2.7098     5.3324     1.0790 C.2     
  25 C25            5.2668    -2.9867     0.0228 C.ar    
  26 C26            4.0811    -5.0782     0.0108 C.ar    
  27 C27            5.2844    -5.7562     0.0249 C.ar    
  28 C28            6.4754    -5.0538     0.0355 C.ar    
  29 C29            6.4662    -3.6708     0.0368 C.ar    
  30 C30            2.7836    -5.8445     0.0002 C.3     
  31 C31           -6.1489     2.1244    -0.0793 C.3     
  32 C32           -7.3003     1.1169    -0.0895 C.3     
  33 C33           -8.6139     1.8554    -0.1064 C.ar    
  34 C34           -9.2028     2.1908    -1.3112 C.ar    
  35 C35           -9.2327     2.1924     1.0829 C.ar    
  36 C36          -10.4375     2.8698     1.0674 C.ar    
  37 C37          -11.0234     3.2106    -0.1374 C.ar    
  38 C38          -10.4076     2.8682    -1.3268 C.ar    
  39 C39          -12.3372     3.9486    -0.1543 C.3     
  40 N40          -12.0866     5.3920    -0.1481 N.am    
  41 C41          -13.1212     6.2557    -0.1609 C.2     
  42 O42          -12.8909     7.5822    -0.1551 O.3     
  43 O43          -14.2618     5.8372    -0.1776 O.2     
  44 C44          -14.0527     8.4531    -0.1697 C.3     
  45 C45          -14.9107     8.1794     1.0672 C.3     
  46 C46          -13.5957     9.9132    -0.1605 C.3     
  47 C47          -14.8759     8.1842    -1.4310 C.3     
  48 C48            6.0998     4.3882     0.1743 C.3     
  49 C49            6.7243     5.3956    -0.7932 C.3     
  50 C50            7.0165     5.4920     0.7055 C.3     
  51 H51           -1.1986    -1.7819    -0.0129 H       
  52 H52           -3.3385    -0.5778    -0.0400 H       
  53 H53           -1.2340     3.1625    -0.0213 H       
  54 H54            1.1893    -0.9264     2.0964 H       
  55 H55            0.5287    -2.2984     1.1739 H       
  56 H56            0.5937    -2.2346    -1.2724 H       
  57 H57            1.3004    -0.8173    -2.0858 H       
  58 H58            2.8638    -2.7572    -2.0949 H       
  59 H59            3.5244    -1.3852    -1.1724 H       
  60 H60            3.4594    -1.4490     1.2739 H       
  61 H61            2.7527    -2.8662     2.0873 H       
  62 H62           -4.8609     0.4366    -0.0600 H       
  63 H63            1.9919     1.7035    -0.3534 H       
  64 H64            1.9513     5.9965     1.4664 H       
  65 H65            5.2604    -1.9067     0.0239 H       
  66 H66            5.2951    -6.8361     0.0280 H       
  67 H67            7.4149    -5.5864     0.0472 H       
  68 H68            7.3983    -3.1252     0.0451 H       
  69 H69            2.4808    -6.0321    -1.0299 H       
  70 H70            2.9182    -6.7941     0.5180 H       
  71 H71            2.0132    -5.2615     0.5049 H       
  72 H72           -6.2239     2.7528     0.8082 H       
  73 H73           -6.2037     2.7479    -0.9716 H       
  74 H74           -7.2254     0.4885    -0.9770 H       
  75 H75           -7.2455     0.4934     0.8029 H       
  76 H76           -8.7213     1.9239    -2.2404 H       
  77 H77           -8.7749     1.9262     2.0241 H       
  78 H78          -10.9213     3.1325     1.9965 H       
  79 H79          -10.8654     3.1344    -2.2680 H       
  80 H80          -12.8932     3.6803    -1.0527 H       
  81 H81          -12.9180     3.6769     0.7271 H       
  82 H82          -11.1761     5.7262    -0.1348 H       
  83 H83          -14.3242     8.3710     1.9658 H       
  84 H84          -15.7828     8.8331     1.0563 H       
  85 H85          -15.2362     7.1392     1.0607 H       
  86 H86          -12.9845    10.1081    -1.0417 H       
  87 H87          -14.4679    10.5669    -0.1714 H       
  88 H88          -13.0093    10.1047     0.7381 H       
  89 H89          -15.2014     7.1439    -1.4375 H       
  90 H90          -15.7480     8.8379    -1.4419 H       
  91 H91          -14.2646     8.3791    -2.3122 H       
  92 H92            6.4908     3.3708     0.1632 H       
  93 H93            7.5264     5.0410    -1.4406 H       
  94 H94            6.0679     6.1497    -1.2275 H       
  95 H95            6.5524     6.3095     1.2572 H       
  96 H96            8.0108     5.2009     1.0442 H       
@<TRIPOS>BOND
   1    1    2 ar
   2    1   16 1
   3    1    6 ar
   4    2    3 ar
   5    2    7 1
   6    3    4 ar
   7    3   51 1
   8    4    5 ar
   9    4   52 1
  10    5    6 ar
  11    5   13 1
  12    6   53 1
  13    7    8 1
  14    7    9 1
  15    8   12 1
  16    8   54 1
  17    8   55 1
  18    9   10 1
  19    9   56 1
  20    9   57 1
  21   10   11 1
  22   10   58 1
  23   10   59 1
  24   11   12 1
  25   11   17 1
  26   12   60 1
  27   12   61 1
  28   13   14 2
  29   13   15 am
  30   15   31 1
  31   15   62 1
  32   16   18 am
  33   16   63 1
  34   17   26 ar
  35   17   25 ar
  36   18   19 1
  37   18   20 2
  38   19   21 1
  39   19   24 2
  40   21   22 2
  41   22   23 1
  42   22   48 1
  43   23   24 1
  44   24   64 1
  45   25   29 ar
  46   25   65 1
  47   26   27 ar
  48   26   30 1
  49   27   28 ar
  50   27   66 1
  51   28   29 ar
  52   28   67 1
  53   29   68 1
  54   30   69 1
  55   30   70 1
  56   30   71 1
  57   31   32 1
  58   31   72 1
  59   31   73 1
  60   32   33 1
  61   32   74 1
  62   32   75 1
  63   33   34 ar
  64   33   35 ar
  65   34   38 ar
  66   34   76 1
  67   35   36 ar
  68   35   77 1
  69   36   37 ar
  70   36   78 1
  71   37   38 ar
  72   37   39 1
  73   38   79 1
  74   39   40 1
  75   39   80 1
  76   39   81 1
  77   40   41 am
  78   40   82 1
  79   41   42 1
  80   41   43 2
  81   42   44 1
  82   44   45 1
  83   44   46 1
  84   44   47 1
  85   45   83 1
  86   45   84 1
  87   45   85 1
  88   46   86 1
  89   46   87 1
  90   46   88 1
  91   47   89 1
  92   47   90 1
  93   47   91 1
  94   48   49 1
  95   48   50 1
  96   48   92 1
  97   49   50 1
  98   49   93 1
  99   49   94 1
 100   50   95 1
 101   50   96 1

#	End of record

