#	Name: ASD01890364
#	Creating user name:	WinNT
#	Creation time:	15. 06. 2019 19:50

#	Modifying user name:	WinNT
#	Modification time:	15. 06. 2019 19:50

#	Program:	/corina/corina34_cracker 3.40 0067  02.08.2006

@<TRIPOS>MOLECULE
ASD01890364
  41   42    0    0    0
SMALL
NO_CHARGES


@<TRIPOS>ATOM
   1 C1             0.1791     1.5287     0.0760 C.2     
   2 C2             0.1167     0.0247     0.0034 C.3     
   3 C3             1.5356    -0.5468     0.0357 C.3     
   4 O4             1.2487     2.0862     0.1465 O.2     
   5 O5            -0.9533     2.2491     0.0570 O.3     
   6 C6             1.4954    -2.6270    -1.2324 C.2     
   7 C7             1.5589    -4.1310    -1.3029 C.3     
   8 O8             1.4626    -1.9729    -2.2533 O.2     
   9 N9             1.4749    -2.0088    -0.0350 N.am    
  10 C10            1.3957    -2.7634     1.1407 C.ar    
  11 C11            2.4615    -2.7787     2.0308 C.ar    
  12 C12            2.3802    -3.5246     3.1904 C.ar    
  13 C13            1.2390    -4.2555     3.4655 C.ar    
  14 C14            0.1762    -4.2427     2.5810 C.ar    
  15 C15            0.2488    -3.4940     1.4226 C.ar    
  16 C16            1.4525    -4.5715    -2.7402 C.ar    
  17 C17            2.5950    -4.7182    -3.5045 C.ar    
  18 C18            2.4974    -5.1222    -4.8229 C.ar    
  19 C19            1.2574    -5.3799    -5.3768 C.ar    
  20 C20            0.1150    -5.2340    -4.6123 C.ar    
  21 C21            0.2129    -4.8342    -3.2926 C.ar    
  22 C22            1.1509    -5.8193    -6.8144 C.3     
  23 H23           -0.4482    -0.3570     0.8538 H       
  24 H24           -0.3744    -0.2742    -0.9227 H       
  25 H25            2.1005    -0.1650    -0.8148 H       
  26 H26            2.0267    -0.2478     0.9617 H       
  27 H27           -0.8628     3.2106     0.1058 H       
  28 H28            2.5060    -4.4746    -0.8868 H       
  29 H29            0.7348    -4.5567    -0.7305 H       
  30 H30            3.3531    -2.2083     1.8164 H       
  31 H31            3.2089    -3.5372     3.8829 H       
  32 H32            1.1779    -4.8380     4.3729 H       
  33 H33           -0.7136    -4.8150     2.7985 H       
  34 H34           -0.5835    -3.4806     0.7346 H       
  35 H35            3.5638    -4.5169    -3.0717 H       
  36 H36            3.3899    -5.2362    -5.4202 H       
  37 H37           -0.8538    -5.4350    -5.0451 H       
  38 H38           -0.6794    -4.7238    -2.6942 H       
  39 H39            1.1976    -6.9071    -6.8662 H       
  40 H40            0.2035    -5.4761    -7.2300 H       
  41 H41            1.9746    -5.3927    -7.3867 H       
@<TRIPOS>BOND
   1    1    2 1
   2    1    4 2
   3    1    5 1
   4    2    3 1
   5    2   23 1
   6    2   24 1
   7    3    9 1
   8    3   25 1
   9    3   26 1
  10    5   27 1
  11    6    7 1
  12    6    8 2
  13    6    9 am
  14    7   16 1
  15    7   28 1
  16    7   29 1
  17    9   10 1
  18   10   11 ar
  19   10   15 ar
  20   11   12 ar
  21   11   30 1
  22   12   13 ar
  23   12   31 1
  24   13   14 ar
  25   13   32 1
  26   14   15 ar
  27   14   33 1
  28   15   34 1
  29   16   17 ar
  30   16   21 ar
  31   17   18 ar
  32   17   35 1
  33   18   19 ar
  34   18   36 1
  35   19   20 ar
  36   19   22 1
  37   20   21 ar
  38   20   37 1
  39   21   38 1
  40   22   39 1
  41   22   40 1
  42   22   41 1

#	End of record

