#	Name: ASD03570042
#	Creating user name:	WinNT
#	Creation time:	15. 06. 2019 20:43

#	Modifying user name:	WinNT
#	Modification time:	15. 06. 2019 20:43

#	Program:	/corina/corina34_cracker 3.40 0067  02.08.2006

@<TRIPOS>MOLECULE
ASD03570042
  54   56    0    0    0
SMALL
NO_CHARGES


@<TRIPOS>ATOM
   1 C1            -0.3416     2.4141    -1.5461 C.2     
   2 C2            -0.4688     1.0572    -1.4206 C.2     
   3 S3             1.0771     0.4217    -0.8632 S.3     
   4 C4             1.7354     1.9989    -0.8506 C.2     
   5 N5             0.8441     2.8688    -1.2332 N.2     
   6 C6            -1.4658     3.3042    -2.0098 C.3     
   7 C7            -1.6354     0.2989    -1.6906 C.2     
   8 O8            -1.6108    -1.0446    -1.5659 O.3     
   9 O9            -2.6592     0.8593    -2.0349 O.2     
  10 C10           -2.8225    -1.7452    -1.8540 C.3     
  11 C11           -2.6021    -3.2467    -1.6591 C.3     
  12 N12            3.0286     2.3076    -0.4865 N.pl3   
  13 C13            3.8615     1.3162     0.0458 C.ar    
  14 C14            3.3309     0.2861     0.8134 C.ar    
  15 C15            5.2363     1.3438    -0.1910 C.ar    
  16 N16            6.0232     0.4079     0.3108 N.ar    
  17 C17            5.5462    -0.5783     1.0470 C.ar    
  18 C18            4.1958    -0.6736     1.3190 C.ar    
  19 O19            5.7700     2.3397    -0.9433 O.3     
  20 C20            7.0982     2.2846    -1.2251 C.ar    
  21 C21            7.5272     1.8426    -2.4687 C.ar    
  22 C22            8.8777     1.7880    -2.7528 C.ar    
  23 C23            9.8022     2.1734    -1.7992 C.ar    
  24 C24            9.3775     2.6138    -0.5594 C.ar    
  25 C25            8.0276     2.6757    -0.2722 C.ar    
  26 C26            6.5203     1.4220    -3.5081 C.3     
  27 C27            7.2421     1.1106    -4.8207 C.3     
  28 C28            5.7796     0.1735    -3.0248 C.3     
  29 C29            5.5170     2.5548    -3.7341 C.3     
  30 F30           -2.5130     3.2537    -1.0835 F       
  31 F31           -1.0036     4.6201    -2.1198 F       
  32 F32           -1.9243     2.8652    -3.2565 F       
  33 H33           -3.6088    -1.4030    -1.1812 H       
  34 H34           -3.1174    -1.5522    -2.8855 H       
  35 H35           -2.3073    -3.4397    -0.6277 H       
  36 H36           -3.5264    -3.7811    -1.8789 H       
  37 H37           -1.8158    -3.5889    -2.3319 H       
  38 H38            3.3615     3.2117    -0.5991 H       
  39 H39            2.2705     0.2342     1.0118 H       
  40 H40            6.2218    -1.3242     1.4393 H       
  41 H41            3.8166    -1.4870     1.9199 H       
  42 H42            9.2121     1.4438    -3.7203 H       
  43 H43           10.8578     2.1300    -2.0233 H       
  44 H44           10.1016     2.9135     0.1838 H       
  45 H45            7.6962     3.0240     0.6949 H       
  46 H46            7.9569     0.3036    -4.6598 H       
  47 H47            6.5139     0.8064    -5.5725 H       
  48 H48            7.7698     2.0001    -5.1651 H       
  49 H49            5.1397     0.4342    -2.1818 H       
  50 H50            5.1686    -0.2232    -3.8357 H       
  51 H51            6.5028    -0.5800    -2.7127 H       
  52 H52            6.0447     3.4442    -4.0784 H       
  53 H53            4.7888     2.2506    -4.4859 H       
  54 H54            5.0028     2.7766    -2.7989 H       
@<TRIPOS>BOND
   1    1    2 2
   2    1    5 1
   3    1    6 1
   4    2    3 1
   5    2    7 1
   6    3    4 1
   7    4    5 2
   8    4   12 1
   9    6   30 1
  10    6   31 1
  11    6   32 1
  12    7    8 1
  13    7    9 2
  14    8   10 1
  15   10   11 1
  16   10   33 1
  17   10   34 1
  18   11   35 1
  19   11   36 1
  20   11   37 1
  21   12   13 1
  22   12   38 1
  23   13   15 ar
  24   13   14 ar
  25   14   18 ar
  26   14   39 1
  27   15   16 ar
  28   15   19 1
  29   16   17 ar
  30   17   18 ar
  31   17   40 1
  32   18   41 1
  33   19   20 1
  34   20   21 ar
  35   20   25 ar
  36   21   22 ar
  37   21   26 1
  38   22   23 ar
  39   22   42 1
  40   23   24 ar
  41   23   43 1
  42   24   25 ar
  43   24   44 1
  44   25   45 1
  45   26   27 1
  46   26   28 1
  47   26   29 1
  48   27   46 1
  49   27   47 1
  50   27   48 1
  51   28   49 1
  52   28   50 1
  53   28   51 1
  54   29   52 1
  55   29   53 1
  56   29   54 1

#	End of record

