#	Name: ASD01410843
#	Creating user name:	WinNT
#	Creation time:	15. 06. 2019 19:18

#	Modifying user name:	WinNT
#	Modification time:	15. 06. 2019 19:18

#	Program:	/corina/corina34_cracker 3.40 0067  02.08.2006

@<TRIPOS>MOLECULE
ASD01410843
 116  123    0    0    0
SMALL
NO_CHARGES


@<TRIPOS>ATOM
   1 C1             0.3968     2.4308     1.8791 C.3     
   2 C2             0.6219     1.1356     2.6934 C.3     
   3 N3             1.2906     1.5890     3.9304 N.am    
   4 C4             0.8992     2.9805     4.1867 C.3     
   5 C5             0.0183     3.4344     3.0024 C.3     
   6 O6             1.5953     2.8335     1.2132 O.3     
   7 C7             0.1146     3.0641     5.4706 C.2     
   8 O8            -0.1011     2.0601     6.1159 O.2     
   9 N9            -0.3474     4.2545     5.9018 N.am    
  10 C10            1.5985     0.2192     1.9478 C.3     
  11 N11            2.0269    -0.8333     2.8780 N.am    
  12 C12            2.6246    -0.4917     4.1668 C.3     
  13 C13            2.1415     0.8445     4.6566 C.2     
  14 O14            2.5274     1.2592     5.7289 O.2     
  15 C15            2.2525    -1.5651     5.1916 C.3     
  16 C16            2.7614    -1.1493     6.5733 C.3     
  17 C17            0.7313    -1.7235     5.2349 C.3     
  18 C18           -1.2084     4.3210     7.0852 C.3     
  19 C19           -2.5594     3.6685     6.9437 C.2     
  20 N20           -2.9581     3.1977     5.7454 N.am    
  21 O21           -3.2878     3.5669     7.9081 O.2     
  22 S22           -4.4891     2.5940     5.5608 S.o2    
  23 C23           -5.5744     4.0225     5.8294 C.3     
  24 C24           -0.5316     4.2542     8.4558 C.3     
  25 C25           -1.1179     5.5765     7.9550 C.3     
  26 C26           -7.0835     3.7706     5.8423 C.3     
  27 C27           -6.3489     4.0833     7.1475 C.3     
  28 O28           -4.5401     2.1773     4.2032 O.2     
  29 O29           -4.6265     1.6572     6.6203 O.2     
  30 C30           -1.2673     3.5413     9.5610 C.2     
  31 C31           -0.7262     2.4995    10.1423 C.2     
  32 C32            1.4574     3.6376     0.1300 C.ar    
  33 C33            2.5870     4.0610    -0.6086 C.ar    
  34 C34            0.2195     4.0569    -0.2815 C.ar    
  35 C35            0.1037     4.8874    -1.4046 C.ar    
  36 N36            1.1665     5.2814    -2.0855 N.ar    
  37 C37            2.3988     4.9006    -1.7342 C.ar    
  38 C38           -1.2373     5.3327    -1.8381 C.2     
  39 S39           -2.7571     4.9144    -1.0514 S.3     
  40 C40            3.5210     5.3267    -2.4659 C.ar    
  41 C41            4.7788     4.9190    -2.0808 C.ar    
  42 C42            4.9515     4.0868    -0.9712 C.ar    
  43 C43            3.8816     3.6638    -0.2437 C.ar    
  44 Cl44           3.3225     6.3599    -3.8467 Cl      
  45 O45            5.8639     5.3300    -2.7877 O.3     
  46 C46            7.1415     4.8735    -2.3389 C.3     
  47 N47           -1.4846     6.1018    -2.8597 N.2     
  48 C48           -2.7404     6.3954    -3.0959 C.2     
  49 C49           -3.6327     5.8663    -2.2489 C.2     
  50 C50           -3.1538     7.2753    -4.2474 C.3     
  51 C51           -3.5266     6.4029    -5.4477 C.3     
  52 C52           -4.3614     8.1198    -3.8359 C.3     
  53 C53            1.8667    -2.1280     2.5395 C.2     
  54 C54            8.2333     5.4351    -3.2518 C.3     
  55 N55            8.2757     6.8977    -3.1222 N.3     
  56 C56            9.4585     7.4524    -3.7964 C.3     
  57 C57            1.3473    -2.4906     1.1720 C.3     
  58 O58            2.1405    -3.0012     3.3353 O.2     
  59 C59            9.4317     8.9793    -3.6883 C.3     
  60 O60            9.3692     9.3536    -2.3094 O.3     
  61 C61            8.2291     8.8310    -1.6221 C.3     
  62 C62            8.2437     7.3025    -1.7092 C.3     
  63 H63           -0.4213     2.3098     1.1691 H       
  64 H64           -0.3214     0.6349     2.9117 H       
  65 H65            1.7871     3.6096     4.2508 H       
  66 H66            0.2653     4.4542     2.7071 H       
  67 H67           -1.0389     3.3503     3.2541 H       
  68 H68           -0.1099     5.0672     5.4285 H       
  69 H69            1.1007    -0.2287     1.0877 H       
  70 H70            2.4637     0.7935     1.6166 H       
  71 H71            3.7090    -0.4620     4.0606 H       
  72 H72            2.7086    -2.5132     4.9066 H       
  73 H73            2.3054    -0.2012     6.8583 H       
  74 H74            2.4964    -1.9140     7.3034 H       
  75 H75            3.8451    -1.0364     6.5425 H       
  76 H76            0.3688    -2.0197     4.2505 H       
  77 H77            0.4663    -2.4882     5.9650 H       
  78 H78            0.2753    -0.7754     5.5199 H       
  79 H79           -2.3484     3.2126     4.9912 H       
  80 H80           -5.2250     4.9645     5.4066 H       
  81 H81            0.5541     4.1607     8.4770 H       
  82 H82           -0.4176     6.3529     7.6469 H       
  83 H83           -2.0354     5.9304     8.4251 H       
  84 H84           -7.7269     4.5471     5.4284 H       
  85 H85           -7.4241     2.7466     5.6894 H       
  86 H86           -6.2062     3.2650     7.8532 H       
  87 H87           -6.5090     5.0655     7.5923 H       
  88 H88           -2.2407     3.8893     9.8739 H       
  89 H89            0.2472     2.1515     9.8295 H       
  90 H90           -1.2534     1.9885    10.9344 H       
  91 H91           -0.6640     3.7483     0.2575 H       
  92 H92            5.9463     3.7783    -0.6855 H       
  93 H93            4.0292     3.0210     0.6115 H       
  94 H94            7.3109     5.2146    -1.3176 H       
  95 H95            7.1688     3.7843    -2.3674 H       
  96 H96           -4.7035     6.0006    -2.2915 H       
  97 H97           -2.3268     7.9317    -4.5182 H       
  98 H98           -4.3536     5.7465    -5.1768 H       
  99 H99           -3.8256     7.0393    -6.2805 H       
 100 H100          -2.6662     5.8013    -5.7408 H       
 101 H101          -4.0958     8.7414    -2.9808 H       
 102 H102          -4.6605     8.7562    -4.6688 H       
 103 H103          -5.1884     7.4634    -3.5651 H       
 104 H104           9.1980     5.0168    -2.9644 H       
 105 H105           8.0151     5.1681    -4.2859 H       
 106 H106          10.3615     7.0697    -3.3207 H       
 107 H107           9.4485     7.1617    -4.8468 H       
 108 H108           2.1739    -2.5054     0.4616 H       
 109 H109           0.8827    -3.4759     1.2094 H       
 110 H110           0.6098    -1.7528     0.8561 H       
 111 H111          10.3354     9.3919    -4.1368 H       
 112 H112           8.5564     9.3659    -4.2103 H       
 113 H113           8.2631     9.1362    -0.5762 H       
 114 H114           7.3188     9.2132    -2.0840 H       
 115 H115           7.3470     6.9024    -1.2361 H       
 116 H116           9.1273     6.9174    -1.2002 H       
@<TRIPOS>BOND
   1    1    2 1
   2    1    6 1
   3    1    5 1
   4    1   63 1
   5    2    3 1
   6    2   10 1
   7    2   64 1
   8    3    4 1
   9    3   13 am
  10    4    5 1
  11    4    7 1
  12    4   65 1
  13    5   66 1
  14    5   67 1
  15    6   32 1
  16    7    8 2
  17    7    9 am
  18    9   18 1
  19    9   68 1
  20   10   11 1
  21   10   69 1
  22   10   70 1
  23   11   12 1
  24   11   53 am
  25   12   13 1
  26   12   15 1
  27   12   71 1
  28   13   14 2
  29   15   16 1
  30   15   17 1
  31   15   72 1
  32   16   73 1
  33   16   74 1
  34   16   75 1
  35   17   76 1
  36   17   77 1
  37   17   78 1
  38   18   19 1
  39   18   24 1
  40   18   25 1
  41   19   20 am
  42   19   21 2
  43   20   22 am
  44   20   79 1
  45   22   23 1
  46   22   28 2
  47   22   29 2
  48   23   26 1
  49   23   27 1
  50   23   80 1
  51   24   25 1
  52   24   30 1
  53   24   81 1
  54   25   82 1
  55   25   83 1
  56   26   27 1
  57   26   84 1
  58   26   85 1
  59   27   86 1
  60   27   87 1
  61   30   31 2
  62   30   88 1
  63   31   89 1
  64   31   90 1
  65   32   33 ar
  66   32   34 ar
  67   33   37 ar
  68   33   43 ar
  69   34   35 ar
  70   34   91 1
  71   35   36 ar
  72   35   38 1
  73   36   37 ar
  74   37   40 ar
  75   38   47 2
  76   38   39 1
  77   39   49 1
  78   40   41 ar
  79   40   44 1
  80   41   42 ar
  81   41   45 1
  82   42   43 ar
  83   42   92 1
  84   43   93 1
  85   45   46 1
  86   46   54 1
  87   46   94 1
  88   46   95 1
  89   47   48 1
  90   48   49 2
  91   48   50 1
  92   49   96 1
  93   50   51 1
  94   50   52 1
  95   50   97 1
  96   51   98 1
  97   51   99 1
  98   51  100 1
  99   52  101 1
 100   52  102 1
 101   52  103 1
 102   53   57 1
 103   53   58 2
 104   54   55 1
 105   54  104 1
 106   54  105 1
 107   55   56 1
 108   55   62 1
 109   56   59 1
 110   56  106 1
 111   56  107 1
 112   57  108 1
 113   57  109 1
 114   57  110 1
 115   59   60 1
 116   59  111 1
 117   59  112 1
 118   60   61 1
 119   61   62 1
 120   61  113 1
 121   61  114 1
 122   62  115 1
 123   62  116 1

#	End of record

