#	Name: ASD05430169
#	Creating user name:	WinNT
#	Creation time:	15. 06. 2019 20:59

#	Modifying user name:	WinNT
#	Modification time:	15. 06. 2019 20:59

#	Program:	/corina/corina34_cracker 3.40 0067  02.08.2006

@<TRIPOS>MOLECULE
ASD05430169
  55   60    0    0    0
SMALL
NO_CHARGES


@<TRIPOS>ATOM
   1 C1            -0.0167     1.3837     0.0096 C.ar    
   2 C2             0.0021    -0.0041     0.0020 C.ar    
   3 C3            -1.1864    -0.7100     0.0095 C.ar    
   4 C4            -2.3926    -0.0346     0.0246 C.ar    
   5 C5            -2.4135     1.3481     0.0322 C.ar    
   6 C6            -1.2286     2.0583     0.0306 C.ar    
   7 C7            -4.2380     0.8739    -2.2188 C.3     
   8 C8            -4.6875     1.8379    -1.1188 C.3     
   9 C9            -3.7303     2.0808     0.0482 C.3     
  10 C10           -4.2405     1.5646    -3.5773 C.3     
  11 C11           -4.0279     3.0764    -3.5201 C.3     
  12 N12           -5.1027     3.6689    -2.7230 N.pl3   
  13 C13           -5.5267     3.0013    -1.5882 C.2     
  14 C14           -5.7264     4.9421    -3.0799 C.3     
  15 C15           -7.2235     4.8494    -2.7634 C.3     
  16 O16           -7.4090     4.4173    -1.4192 O.3     
  17 N17           -6.5965     3.3548    -0.9794 N.2     
  18 C18           -5.1052     6.0552    -2.2760 C.ar    
  19 C19           -4.8443     7.2751    -2.8718 C.ar    
  20 C20           -4.8019     5.8574    -0.9418 C.ar    
  21 C21           -4.2330     6.8777    -0.2034 C.ar    
  22 C22           -3.9664     8.0982    -0.8004 C.ar    
  23 C23           -4.2751     8.2966    -2.1355 C.ar    
  24 O24            1.1502     2.0804     0.0022 O.3     
  25 Br25           1.6517    -0.9282    -0.0193 Br      
  26 C26            1.0546     3.5062     0.0108 C.3     
  27 F27           -3.4103     9.0963    -0.0795 F       
  28 C28           -4.9985     1.2505     0.2579 C.3     
  29 C29           -3.3494     0.8670    -4.6182 C.3     
  30 O30           -4.4482     1.0747    -5.5289 O.3     
  31 C31           -5.4234     1.1531    -4.4693 C.3     
  32 H32           -1.1727    -1.7899     0.0032 H       
  33 H33           -3.3201    -0.5878     0.0301 H       
  34 H34           -1.2459     3.1382     0.0366 H       
  35 H35           -3.2306     0.5216    -1.9974 H       
  36 H36           -4.9169     0.0216    -2.2484 H       
  37 H37           -3.7063     3.0815     0.4796 H       
  38 H38           -3.0658     3.2933    -3.0560 H       
  39 H39           -4.0513     3.4877    -4.5293 H       
  40 H40           -5.5869     5.1343    -4.1437 H       
  41 H41           -7.6829     5.8290    -2.8955 H       
  42 H42           -7.6933     4.1363    -3.4409 H       
  43 H43           -5.0852     7.4296    -3.9132 H       
  44 H44           -5.0099     4.9054    -0.4763 H       
  45 H45           -3.9968     6.7232     0.8391 H       
  46 H46           -4.0673     9.2481    -2.6024 H       
  47 H47            2.0557     3.9375     0.0036 H       
  48 H48            0.5092     3.8391    -0.8722 H       
  49 H49            0.5262     3.8295     0.9076 H       
  50 H50           -5.8092     1.7048     0.8276 H       
  51 H51           -4.8804     0.1743     0.3843 H       
  52 H52           -2.4507     1.4274    -4.8760 H       
  53 H53           -3.1514    -0.1819    -4.3975 H       
  54 H54           -5.8637     0.1923    -4.2028 H       
  55 H55           -6.1648     1.9397    -4.6094 H       
@<TRIPOS>BOND
   1    1    2 ar
   2    1   24 1
   3    1    6 ar
   4    2    3 ar
   5    2   25 1
   6    3    4 ar
   7    3   32 1
   8    4    5 ar
   9    4   33 1
  10    5    6 ar
  11    5    9 1
  12    6   34 1
  13    7    8 1
  14    7   10 1
  15    7   35 1
  16    7   36 1
  17    8    9 1
  18    8   28 1
  19    8   13 1
  20    9   28 1
  21    9   37 1
  22   10   11 1
  23   10   29 1
  24   10   31 1
  25   11   12 1
  26   11   38 1
  27   11   39 1
  28   12   13 1
  29   12   14 1
  30   13   17 2
  31   14   15 1
  32   14   18 1
  33   14   40 1
  34   15   16 1
  35   15   41 1
  36   15   42 1
  37   16   17 1
  38   18   19 ar
  39   18   20 ar
  40   19   23 ar
  41   19   43 1
  42   20   21 ar
  43   20   44 1
  44   21   22 ar
  45   21   45 1
  46   22   23 ar
  47   22   27 1
  48   23   46 1
  49   24   26 1
  50   26   47 1
  51   26   48 1
  52   26   49 1
  53   28   50 1
  54   28   51 1
  55   29   30 1
  56   29   52 1
  57   29   53 1
  58   30   31 1
  59   31   54 1
  60   31   55 1

#	End of record

