#	Name: ASD02030388
#	Creating user name:	WinNT
#	Creation time:	15. 06. 2019 20:15

#	Modifying user name:	WinNT
#	Modification time:	15. 06. 2019 20:15

#	Program:	/corina/corina34_cracker 3.40 0067  02.08.2006

@<TRIPOS>MOLECULE
ASD02030388
  43   44    0    0    0
SMALL
NO_CHARGES


@<TRIPOS>ATOM
   1 C1             0.0046     1.4827     0.0177 C.2     
   2 C2             0.0169     0.0088     0.0167 C.ar    
   3 C3             1.2331    -0.6814    -0.0094 C.ar    
   4 C4             1.2398    -2.0627    -0.0096 C.ar    
   5 C5             0.0322    -2.7666     0.0161 C.ar    
   6 C6            -1.1754    -2.0785     0.0420 C.ar    
   7 C7            -1.1868    -0.7013     0.0477 C.ar    
   8 O8             1.0516     2.0990    -0.0042 O.2     
   9 O9            -1.1679     2.1467     0.0372 O.3     
  10 N10            0.0390    -4.1586     0.0153 N.pl3   
  11 C11           -1.2259    -4.8972     0.0423 C.3     
  12 N12            2.4566    -2.7582    -0.0362 N.am    
  13 C13            3.5066    -2.2535    -0.7138 C.2     
  14 O14            3.3711    -1.2515    -1.3838 O.2     
  15 C15            4.8491    -2.9341    -0.6391 C.3     
  16 C16            5.8592    -2.1646    -1.4925 C.3     
  17 C17            7.2622    -2.7746    -1.3270 C.3     
  18 C18            7.7025    -3.2531    -2.7260 C.3     
  19 C19            6.8655    -2.3909    -3.7032 C.3     
  20 C20            5.4959    -2.2937    -2.9862 C.3     
  21 C21           -1.1040     3.5973     0.0368 C.3     
  22 H22            2.1649    -0.1357    -0.0296 H       
  23 H23           -2.1067    -2.6251     0.0614 H       
  24 H24           -2.1266    -0.1695     0.0720 H       
  25 H25            0.8812    -4.6395    -0.0031 H       
  26 H26           -1.0216    -5.9679     0.0374 H       
  27 H27           -1.7794    -4.6371     0.9445 H       
  28 H28           -1.8178    -4.6363    -0.8350 H       
  29 H29            2.5428    -3.6027     0.4331 H       
  30 H30            5.1891    -2.9543     0.3964 H       
  31 H31            4.7606    -3.9543    -1.0124 H       
  32 H32            5.8717    -1.1146    -1.1999 H       
  33 H33            7.9557    -2.0205    -0.9550 H       
  34 H34            7.2234    -3.6189    -0.6387 H       
  35 H35            8.7671    -3.0721    -2.8735 H       
  36 H36            7.4725    -4.3105    -2.8573 H       
  37 H37            7.3094    -1.4027    -3.8237 H       
  38 H38            6.7624    -2.8894    -4.6670 H       
  39 H39            4.9097    -3.1961    -3.1596 H       
  40 H40            4.9504    -1.4124    -3.3237 H       
  41 H41           -2.1146     4.0055     0.0536 H       
  42 H42           -0.5602     3.9372     0.9182 H       
  43 H43           -0.5893     3.9381    -0.8615 H       
@<TRIPOS>BOND
   1    1    2 1
   2    1    8 2
   3    1    9 1
   4    2    3 ar
   5    2    7 ar
   6    3    4 ar
   7    3   22 1
   8    4    5 ar
   9    4   12 1
  10    5    6 ar
  11    5   10 1
  12    6    7 ar
  13    6   23 1
  14    7   24 1
  15    9   21 1
  16   10   11 1
  17   10   25 1
  18   11   26 1
  19   11   27 1
  20   11   28 1
  21   12   13 am
  22   12   29 1
  23   13   14 2
  24   13   15 1
  25   15   16 1
  26   15   30 1
  27   15   31 1
  28   16   17 1
  29   16   20 1
  30   16   32 1
  31   17   18 1
  32   17   33 1
  33   17   34 1
  34   18   19 1
  35   18   35 1
  36   18   36 1
  37   19   20 1
  38   19   37 1
  39   19   38 1
  40   20   39 1
  41   20   40 1
  42   21   41 1
  43   21   42 1
  44   21   43 1

#	End of record

