#	Name: ASD01231373
#	Creating user name:	WinNT
#	Creation time:	15. 06. 2019 19:15

#	Modifying user name:	WinNT
#	Modification time:	15. 06. 2019 19:15

#	Program:	/corina/corina34_cracker 3.40 0067  02.08.2006

@<TRIPOS>MOLECULE
ASD01231373
  59   62    0    0    0
SMALL
NO_CHARGES


@<TRIPOS>ATOM
   1 C1            -0.0180     1.4730     0.0101 C.2     
   2 C2             0.0021    -0.0041     0.0020 C.ar    
   3 C3             1.2190    -0.6889    -0.0133 C.ar    
   4 C4             1.2304    -2.0681    -0.0203 C.ar    
   5 C5             0.0396    -2.7731    -0.0127 C.ar    
   6 C6            -1.1695    -2.1010     0.0020 C.ar    
   7 C7            -1.1954    -0.7216     0.0154 C.ar    
   8 O8             1.0256     2.0946     0.0035 O.2     
   9 O9            -1.1936     2.1307     0.0193 O.3     
  10 C10           -2.4611    -2.8773     0.0092 C.3     
  11 F11           -2.8490    -3.1250     1.3303 F       
  12 F12           -3.4551    -2.1347    -0.6372 F       
  13 F13           -2.2784    -4.0928    -0.6589 F       
  14 C14            2.5427    -2.8089    -0.0368 C.3     
  15 C15            4.1344    -4.0189     5.3765 C.3     
  16 C16            3.0942    -5.1226     5.6631 C.3     
  17 C17            2.7507    -5.6299     4.2465 C.3     
  18 C18            3.0256    -4.4581     3.3286 C.ar    
  19 C19            2.6131    -4.2207     2.0280 C.ar    
  20 C20            2.9939    -3.0630     1.3784 C.ar    
  21 C21            3.7892    -2.1372     2.0279 C.ar    
  22 C22            4.2012    -2.3719     3.3249 C.ar    
  23 C23            3.8206    -3.5325     3.9779 C.ar    
  24 N24            3.6810    -6.1940     6.4719 N.am    
  25 C25            3.6913    -6.0953     7.8160 C.2     
  26 O26            3.2138    -5.1176     8.3570 O.2     
  27 O27            4.2307    -7.0799     8.5592 O.3     
  28 C28            4.2069    -6.9063    10.0006 C.3     
  29 C29            4.8493    -8.0989    10.6608 C.ar    
  30 C30            6.2080    -8.0995    10.9154 C.ar    
  31 C31            6.7973    -9.1935    11.5210 C.ar    
  32 C32            6.0278   -10.2867    11.8725 C.ar    
  33 C33            4.6689   -10.2858    11.6187 C.ar    
  34 C34            4.0789    -9.1900    11.0170 C.ar    
  35 C35           -1.1373     3.5816     0.0269 C.3     
  36 H36            2.1490    -0.1399    -0.0199 H       
  37 H37            0.0543    -3.8530    -0.0186 H       
  38 H38           -2.1399    -0.1982     0.0318 H       
  39 H39            2.4165    -3.7600    -0.5542 H       
  40 H40            3.2916    -2.2100    -0.5550 H       
  41 H41            4.0286    -3.2043     6.0929 H       
  42 H42            5.1430    -4.4302     5.4166 H       
  43 H43            2.2122    -4.7067     6.1502 H       
  44 H44            3.3871    -6.4745     3.9825 H       
  45 H45            1.7001    -5.9152     4.1913 H       
  46 H46            1.9924    -4.9438     1.5197 H       
  47 H47            4.0882    -1.2315     1.5212 H       
  48 H48            4.8224    -1.6482     3.8316 H       
  49 H49            4.0622    -6.9744     6.0399 H       
  50 H50            4.7567    -6.0035    10.2669 H       
  51 H51            3.1746    -6.8160    10.3387 H       
  52 H52            6.8092    -7.2453    10.6408 H       
  53 H53            7.8589    -9.1942    11.7192 H       
  54 H54            6.4883   -11.1418    12.3450 H       
  55 H55            4.0678   -11.1401    11.8930 H       
  56 H56            3.0166    -9.1877    10.8222 H       
  57 H57           -0.6055     3.9199     0.9162 H       
  58 H58           -0.6140     3.9295    -0.8637 H       
  59 H59           -2.1501     3.9844     0.0339 H       
@<TRIPOS>BOND
   1    1    2 1
   2    1    8 2
   3    1    9 1
   4    2    3 ar
   5    2    7 ar
   6    3    4 ar
   7    3   36 1
   8    4    5 ar
   9    4   14 1
  10    5    6 ar
  11    5   37 1
  12    6    7 ar
  13    6   10 1
  14    7   38 1
  15    9   35 1
  16   10   11 1
  17   10   12 1
  18   10   13 1
  19   14   20 1
  20   14   39 1
  21   14   40 1
  22   15   16 1
  23   15   23 1
  24   15   41 1
  25   15   42 1
  26   16   17 1
  27   16   24 1
  28   16   43 1
  29   17   18 1
  30   17   44 1
  31   17   45 1
  32   18   19 ar
  33   18   23 ar
  34   19   20 ar
  35   19   46 1
  36   20   21 ar
  37   21   22 ar
  38   21   47 1
  39   22   23 ar
  40   22   48 1
  41   24   25 am
  42   24   49 1
  43   25   26 2
  44   25   27 1
  45   27   28 1
  46   28   29 1
  47   28   50 1
  48   28   51 1
  49   29   30 ar
  50   29   34 ar
  51   30   31 ar
  52   30   52 1
  53   31   32 ar
  54   31   53 1
  55   32   33 ar
  56   32   54 1
  57   33   34 ar
  58   33   55 1
  59   34   56 1
  60   35   57 1
  61   35   58 1
  62   35   59 1

#	End of record

