#	Name: ASD02198445
#	Creating user name:	WinNT
#	Creation time:	15. 06. 2019 20:19

#	Modifying user name:	WinNT
#	Modification time:	15. 06. 2019 20:19

#	Program:	/corina/corina34_cracker 3.40 0067  02.08.2006

@<TRIPOS>MOLECULE
ASD02198445
  42   45    0    0    0
SMALL
NO_CHARGES


@<TRIPOS>ATOM
   1 O1             0.0867     0.0099    -0.0395 O.2     
   2 S2             0.0857     1.4308    -0.0599 S.o2    
   3 C3            -0.2759     4.2006    -1.2462 C.ar    
   4 C4            -0.5788     5.5454    -1.4358 C.ar    
   5 C5            -1.8058     5.9338    -1.8808 C.ar    
   6 C6            -2.7900     4.9694    -2.1564 C.ar    
   7 C7            -2.4938     3.5970    -1.9673 C.ar    
   8 C8            -1.2136     3.2235    -1.5050 C.ar    
   9 O9             1.2695     2.2071    -0.1830 O.2     
  10 N10           -0.9002     1.8797    -1.3124 N.am    
  11 C11           -4.0653     5.3413    -2.6163 C.ar    
  12 C12           -4.9951     4.3811    -2.8731 C.ar    
  13 C13           -4.7027     3.0315    -2.6865 C.ar    
  14 C14           -3.4781     2.6350    -2.2426 C.ar    
  15 C15           -0.6965     1.9493     1.4313 C.2     
  16 S16           -0.4655     3.5117     2.2048 S.3     
  17 C17           -1.5786     3.0726     3.4941 C.2     
  18 C18           -2.0442     1.8240     3.2799 C.2     
  19 C19           -1.5601     1.2159     2.1428 C.2     
  20 C20           -1.9462     3.9354     4.6329 C.ar    
  21 N21           -2.8025     3.5051     5.5601 N.ar    
  22 C22           -1.3968     5.2181     4.7607 C.ar    
  23 C23           -1.7712     5.9893     5.8441 C.ar    
  24 N24           -2.6316     5.4984     6.7236 N.ar    
  25 C25           -3.1327     4.2791     6.5825 C.ar    
  26 S26           -4.2736     3.6759     7.7822 S.3     
  27 C27           -4.3493     5.1050     8.8903 C.3     
  28 H28            0.7063     3.9188    -0.8966 H       
  29 H29            0.1714     6.2935    -1.2262 H       
  30 H30           -2.0225     6.9824    -2.0216 H       
  31 H31           -1.2595     1.2071    -1.9119 H       
  32 H32           -4.3061     6.3836    -2.7648 H       
  33 H33           -5.9740     4.6695    -3.2264 H       
  34 H34           -5.4583     2.2892    -2.8972 H       
  35 H35           -3.2653     1.5854    -2.1025 H       
  36 H36           -2.7445     1.3413     3.9455 H       
  37 H37           -1.8499     0.2171     1.8514 H       
  38 H38           -0.6967     5.5949     4.0297 H       
  39 H39           -1.3663     6.9822     5.9729 H       
  40 H40           -5.0326     4.8916     9.7123 H       
  41 H41           -3.3552     5.3095     9.2879 H       
  42 H42           -4.7057     5.9746     8.3381 H       
@<TRIPOS>BOND
   1    1    2 2
   2    2    9 2
   3    2   10 am
   4    2   15 1
   5    3    4 ar
   6    3    8 ar
   7    3   28 1
   8    4    5 ar
   9    4   29 1
  10    5    6 ar
  11    5   30 1
  12    6    7 ar
  13    6   11 ar
  14    7    8 ar
  15    7   14 ar
  16    8   10 1
  17   10   31 1
  18   11   12 ar
  19   11   32 1
  20   12   13 ar
  21   12   33 1
  22   13   14 ar
  23   13   34 1
  24   14   35 1
  25   15   16 1
  26   15   19 2
  27   16   17 1
  28   17   18 2
  29   17   20 1
  30   18   19 1
  31   18   36 1
  32   19   37 1
  33   20   21 ar
  34   20   22 ar
  35   21   25 ar
  36   22   23 ar
  37   22   38 1
  38   23   24 ar
  39   23   39 1
  40   24   25 ar
  41   25   26 1
  42   26   27 1
  43   27   40 1
  44   27   41 1
  45   27   42 1

#	End of record

