#	Name: ASD01880756
#	Creating user name:	WinNT
#	Creation time:	15. 06. 2019 19:41

#	Modifying user name:	WinNT
#	Modification time:	15. 06. 2019 19:41

#	Program:	/corina/corina34_cracker 3.40 0067  02.08.2006

@<TRIPOS>MOLECULE
ASD01880756
  43   45    0    0    0
SMALL
NO_CHARGES


@<TRIPOS>ATOM
   1 N1            -0.0158     1.3133     0.0093 N.ar    
   2 C2             0.0021    -0.0041     0.0020 C.ar    
   3 N3             1.1310    -0.6839    -0.0124 N.ar    
   4 C4             2.3020    -0.0629    -0.0203 C.ar    
   5 C5             2.3325     1.3179    -0.0131 C.ar    
   6 C6             1.1186     2.0075     0.0022 C.ar    
   7 C7             3.6432     2.0616    -0.0217 C.3     
   8 O8             4.7223     1.1249    -0.0370 O.3     
   9 C9             5.9802     1.6342    -0.0463 C.ar    
  10 C10            7.0768     0.7777    -0.0613 C.ar    
  11 C11            8.3486     1.2941    -0.0712 C.ar    
  12 C12            8.5505     2.6783    -0.0661 C.ar    
  13 C13            7.4457     3.5341    -0.0514 C.ar    
  14 C14            6.1719     3.0107    -0.0465 C.ar    
  15 C15            9.7190     0.6641    -0.0878 C.3     
  16 N16           10.6798     1.7731    -0.0915 N.am    
  17 C17           10.0014     2.9333    -0.0790 C.2     
  18 O18           10.5126     4.0365    -0.0788 O.2     
  19 C19           -1.3048    -0.7544     0.0110 C.3     
  20 C20            7.6479     5.0275    -0.0452 C.3     
  21 N21            1.0960     3.3927     0.0094 N.pl3   
  22 C22           12.6326     1.5979    -1.5535 C.3     
  23 C23           12.1385     1.6380    -0.1061 C.3     
  24 H24            3.2212    -0.6298    -0.0317 H       
  25 H25            3.6972     2.6926    -0.9088 H       
  26 H26            3.7142     2.6830     0.8710 H       
  27 H27            6.9274    -0.2919    -0.0649 H       
  28 H28            5.3185     3.6725    -0.0355 H       
  29 H29            9.8597     0.0495     0.8014 H       
  30 H30            9.8422     0.0586    -0.9857 H       
  31 H31           -1.6301    -0.9299    -1.0145 H       
  32 H32           -1.1717    -1.7099     0.5184 H       
  33 H33           -2.0579    -0.1663     0.5355 H       
  34 H34            7.6872     5.3930    -1.0713 H       
  35 H35            6.8195     5.5041     0.4788 H       
  36 H36            8.5833     5.2654     0.4613 H       
  37 H37            1.9280     3.8913     0.0038 H       
  38 H38            0.2482     3.8639     0.0200 H       
  39 H39           12.1838     0.7477    -2.0672 H       
  40 H40           12.3481     2.5201    -2.0602 H       
  41 H41           13.7179     1.4974    -1.5643 H       
  42 H42           12.5873     2.4882     0.4076 H       
  43 H43           12.4230     0.7158     0.4006 H       
@<TRIPOS>BOND
   1    1    2 ar
   2    1    6 ar
   3    2    3 ar
   4    2   19 1
   5    3    4 ar
   6    4    5 ar
   7    4   24 1
   8    5    6 ar
   9    5    7 1
  10    6   21 1
  11    7    8 1
  12    7   25 1
  13    7   26 1
  14    8    9 1
  15    9   10 ar
  16    9   14 ar
  17   10   11 ar
  18   10   27 1
  19   11   12 ar
  20   11   15 1
  21   12   13 ar
  22   12   17 1
  23   13   14 ar
  24   13   20 1
  25   14   28 1
  26   15   16 1
  27   15   29 1
  28   15   30 1
  29   16   17 am
  30   16   23 1
  31   17   18 2
  32   19   31 1
  33   19   32 1
  34   19   33 1
  35   20   34 1
  36   20   35 1
  37   20   36 1
  38   21   37 1
  39   21   38 1
  40   22   23 1
  41   22   39 1
  42   22   40 1
  43   22   41 1
  44   23   42 1
  45   23   43 1

#	End of record

