#	Name: ASD01811423
#	Creating user name:	WinNT
#	Creation time:	15. 06. 2019 19:26

#	Modifying user name:	WinNT
#	Modification time:	15. 06. 2019 19:26

#	Program:	/corina/corina34_cracker 3.40 0067  02.08.2006

@<TRIPOS>MOLECULE
ASD01811423
  65   69    0    0    0
SMALL
NO_CHARGES


@<TRIPOS>ATOM
   1 C1            -0.1310     1.6684    -1.1761 C.2     
   2 C2            -0.0909     0.2185    -1.4449 C.ar    
   3 C3             0.9517    -0.3363    -2.2032 C.ar    
   4 C4             0.9491    -1.6864    -2.4273 C.ar    
   5 C5            -0.0802    -2.4651    -1.9006 C.ar    
   6 N6            -1.0540    -1.9157    -1.1877 N.ar    
   7 C7            -1.0861    -0.6221    -0.9438 C.ar    
   8 O8             0.7433     2.3921    -1.6126 O.2     
   9 N9            -1.1397     2.1918    -0.4515 N.am    
  10 N10           -0.0861    -3.8313    -2.1254 N.pl3   
  11 C11            1.0393    -4.4647    -2.8172 C.3     
  12 C12           -1.2177    -4.6435    -1.6715 C.3     
  13 C13           -2.3254     4.2496     0.0169 C.ar    
  14 C14           -1.1313     3.5512    -0.1205 C.ar    
  15 C15            0.0711     4.2205     0.0754 C.ar    
  16 C16            0.0258     5.5795     0.4053 C.ar    
  17 C17           -1.2159     6.2050     0.5236 C.ar    
  18 N18           -2.3302     5.5308     0.3284 N.ar    
  19 C19           -3.6334     3.5333    -0.2000 C.3     
  20 C20            1.2741     6.3408     0.6254 C.2     
  21 O21            1.4166     7.4350     0.1155 O.2     
  22 C22            3.6568     5.2155     3.7641 C.3     
  23 O23            4.7485     4.4843     3.1837 O.3     
  24 C24            5.8508     4.6855     4.0880 C.3     
  25 C25            5.2359     4.9055     5.4510 C.ar    
  26 C26            5.7513     4.8411     6.7261 C.ar    
  27 C27            4.9260     5.1000     7.8228 C.ar    
  28 C28            3.5828     5.4224     7.6173 C.ar    
  29 C29            3.0789     5.4841     6.3343 C.ar    
  30 C30            3.9000     5.2277     5.2532 C.ar    
  31 N31            2.2539     5.8216     1.3915 N.am    
  32 C32            3.4565     6.6068     1.7012 C.3     
  33 C33            3.6424     6.6435     3.2219 C.3     
  34 C34            2.3364     4.5148     3.4509 C.3     
  35 C35            2.1383     4.4604     1.9323 C.3     
  36 C36            5.4546     5.0345     9.1520 C.1     
  37 N37            5.8740     4.9826    10.2065 N.1     
  38 H38            1.7381     0.2880    -2.6011 H       
  39 H39            1.7369    -2.1442    -3.0072 H       
  40 H40           -1.8912    -0.2077    -0.3552 H       
  41 H41           -1.8715     1.6260    -0.1593 H       
  42 H42            1.7880    -4.7722    -2.0871 H       
  43 H43            0.6845    -5.3385    -3.3638 H       
  44 H44            1.4827    -3.7547    -3.5154 H       
  45 H45           -1.9680    -4.6945    -2.4605 H       
  46 H46           -0.8710    -5.6493    -1.4341 H       
  47 H47           -1.6561    -4.1909    -0.7820 H       
  48 H48            1.0150     3.7053    -0.0239 H       
  49 H49           -1.2637     7.2535     0.7777 H       
  50 H50           -3.9787     3.1134     0.7448 H       
  51 H51           -4.3750     4.2375    -0.5772 H       
  52 H52           -3.4927     2.7311    -0.9243 H       
  53 H53            6.4904     3.8029     4.1027 H       
  54 H54            6.4261     5.5619     3.7897 H       
  55 H55            6.7909     4.5909     6.8779 H       
  56 H56            2.9394     5.6228     8.4612 H       
  57 H57            2.0402     5.7330     6.1748 H       
  58 H58            4.3263     6.1413     1.2378 H       
  59 H59            3.3376     7.6221     1.3229 H       
  60 H60            2.8200     7.1966     3.6757 H       
  61 H61            4.5864     7.1331     3.4612 H       
  62 H62            2.3586     3.5013     3.8514 H       
  63 H63            1.5144     5.0679     3.9054 H       
  64 H64            1.1498     4.0603     1.7068 H       
  65 H65            2.9028     3.8240     1.4866 H       
@<TRIPOS>BOND
   1    1    2 1
   2    1    8 2
   3    1    9 am
   4    2    3 ar
   5    2    7 ar
   6    3    4 ar
   7    3   38 1
   8    4    5 ar
   9    4   39 1
  10    5    6 ar
  11    5   10 1
  12    6    7 ar
  13    7   40 1
  14    9   14 1
  15    9   41 1
  16   10   11 1
  17   10   12 1
  18   11   42 1
  19   11   43 1
  20   11   44 1
  21   12   45 1
  22   12   46 1
  23   12   47 1
  24   13   14 ar
  25   13   18 ar
  26   13   19 1
  27   14   15 ar
  28   15   16 ar
  29   15   48 1
  30   16   17 ar
  31   16   20 1
  32   17   18 ar
  33   17   49 1
  34   19   50 1
  35   19   51 1
  36   19   52 1
  37   20   21 2
  38   20   31 am
  39   22   23 1
  40   22   30 1
  41   22   33 1
  42   22   34 1
  43   23   24 1
  44   24   25 1
  45   24   53 1
  46   24   54 1
  47   25   26 ar
  48   25   30 ar
  49   26   27 ar
  50   26   55 1
  51   27   28 ar
  52   27   36 1
  53   28   29 ar
  54   28   56 1
  55   29   30 ar
  56   29   57 1
  57   31   32 1
  58   31   35 1
  59   32   33 1
  60   32   58 1
  61   32   59 1
  62   33   60 1
  63   33   61 1
  64   34   35 1
  65   34   62 1
  66   34   63 1
  67   35   64 1
  68   35   65 1
  69   36   37 3

#	End of record

