#	Name: ASD01900064
#	Creating user name:	WinNT
#	Creation time:	15. 06. 2019 19:51

#	Modifying user name:	WinNT
#	Modification time:	15. 06. 2019 19:51

#	Program:	/corina/corina34_cracker 3.40 0067  02.08.2006

@<TRIPOS>MOLECULE
ASD01900064
  36   38    0    0    0
SMALL
NO_CHARGES


@<TRIPOS>ATOM
   1 C1            -2.8807     1.5669     1.1587 C.ar    
   2 C2            -2.5788     0.2245     1.2916 C.ar    
   3 C3            -2.7829    -0.6408     0.2249 C.ar    
   4 C4            -3.2899    -0.1548    -0.9729 C.ar    
   5 C5            -3.5902     1.1885    -1.1007 C.ar    
   6 C6            -3.3912     2.0477    -0.0342 C.ar    
   7 Cl7           -2.6258     2.6493     2.4918 Cl      
   8 Cl8           -4.2242     1.7969    -2.5979 Cl      
   9 N9            -2.4777    -1.9999     0.3567 N.am    
  10 C10           -3.2219    -2.9229    -0.2841 C.2     
  11 O11           -4.2142    -2.5848    -0.8941 O.2     
  12 C12           -2.8211    -4.3750    -0.2428 C.3     
  13 C13           -1.9137    -4.7181    -1.4463 C.3     
  14 C14           -4.0718    -5.2894    -0.4189 C.3     
  15 C15           -2.7016    -5.8074    -2.2362 C.3     
  16 C16           -4.1778    -5.3377    -1.9841 C.3     
  17 C17           -2.6415    -7.0708    -1.3244 C.3     
  18 C18           -3.5489    -6.7278    -0.1209 C.3     
  19 C19           -1.6977    -3.4991    -2.3057 C.2     
  20 O20           -2.4406    -3.2732    -3.2314 O.2     
  21 O21           -0.6800    -2.6643    -2.0427 O.3     
  22 H22           -2.1842    -0.1510     2.2242 H       
  23 H23           -3.4493    -0.8256    -1.8042 H       
  24 H24           -3.6268     3.0967    -0.1360 H       
  25 H25           -1.7305    -2.2779     0.9093 H       
  26 H26           -2.3117    -4.6013     0.6939 H       
  27 H27           -0.9581    -5.1130    -1.1013 H       
  28 H28           -4.9653    -4.9847     0.1261 H       
  29 H29           -2.4109    -5.9444    -3.2778 H       
  30 H30           -4.9050    -6.0759    -2.3220 H       
  31 H31           -4.3723    -4.3539    -2.4112 H       
  32 H32           -3.0272    -7.9412    -1.8552 H       
  33 H33           -1.6195    -7.2503    -0.9907 H       
  34 H34           -2.9730    -6.7386     0.8045 H       
  35 H35           -4.3808    -7.4295    -0.0600 H       
  36 H36           -0.5817    -1.8960    -2.6215 H       
@<TRIPOS>BOND
   1    1    2 ar
   2    1    7 1
   3    1    6 ar
   4    2    3 ar
   5    2   22 1
   6    3    4 ar
   7    3    9 1
   8    4    5 ar
   9    4   23 1
  10    5    6 ar
  11    5    8 1
  12    6   24 1
  13    9   10 am
  14    9   25 1
  15   10   11 2
  16   10   12 1
  17   12   13 1
  18   12   14 1
  19   12   26 1
  20   13   19 1
  21   13   15 1
  22   13   27 1
  23   14   18 1
  24   14   16 1
  25   14   28 1
  26   15   16 1
  27   15   17 1
  28   15   29 1
  29   16   30 1
  30   16   31 1
  31   17   18 1
  32   17   32 1
  33   17   33 1
  34   18   34 1
  35   18   35 1
  36   19   20 2
  37   19   21 1
  38   21   36 1

#	End of record

