#	Name: ASD00840893
#	Creating user name:	WinNT
#	Creation time:	15. 06. 2019 18:40

#	Modifying user name:	WinNT
#	Modification time:	15. 06. 2019 18:40

#	Program:	/corina/corina34_cracker 3.40 0067  02.08.2006

@<TRIPOS>MOLECULE
ASD00840893
 100  105    0    0    0
SMALL
NO_CHARGES


@<TRIPOS>ATOM
   1 F1             6.0612    -1.9834    -1.9899 F       
   2 N2             1.0514     1.4389    -0.7559 N.ar    
   3 C3             1.3112     0.1461    -0.8566 C.ar    
   4 C4             1.2291    -0.6811     0.2565 C.ar    
   5 C5             0.8711    -0.1348     1.4764 C.ar    
   6 C6             0.6065     1.2265     1.5401 C.ar    
   7 C7             0.7076     1.9886     0.3936 C.ar    
   8 C8             1.5256    -2.1538     0.1368 C.3     
   9 C9             1.2342    -2.8613     1.4431 C.2     
  10 C10            0.7110    -2.7724    -1.0011 C.3     
  11 C11           -0.7509    -2.4708    -0.7940 C.2     
  12 N12           -1.6717    -2.9949    -1.6270 N.am    
  13 O13           -1.0988    -1.7565     0.1223 O.2     
  14 C14           -3.0913    -2.6287    -1.5096 C.3     
  15 C15           -3.5984    -2.1969    -2.8897 C.3     
  16 N16           -3.3085    -3.2544    -3.8672 N.3     
  17 C17           -1.8618    -3.4645    -4.0117 C.3     
  18 C18           -1.2827    -3.9436    -2.6815 C.3     
  19 C19           -3.9293    -2.9564    -5.1648 C.3     
  20 C20           -3.5046    -4.0117    -6.1897 C.3     
  21 C21           -4.2022    -3.7310    -7.5226 C.3     
  22 N22           -5.6578    -3.7662    -7.3317 N.3     
  23 C23           -6.0946    -2.7300    -6.3873 C.3     
  24 C24           -5.4535    -2.9808    -5.0205 C.3     
  25 C25           -6.3603    -3.6383    -8.6155 C.3     
  26 O26            0.1586    -2.9330     1.9991 O.2     
  27 N27            2.3907    -3.3952     1.8706 N.am    
  28 C28            3.0038    -2.3803    -0.0825 C.ar    
  29 C29            3.4488    -3.1313     0.9983 C.ar    
  30 C30            3.8712    -1.9956    -1.0802 C.ar    
  31 C31            5.2067    -2.3583    -1.0129 C.ar    
  32 C32            5.6631    -3.1078     0.0608 C.ar    
  33 C33            4.7923    -3.4936     1.0618 C.ar    
  34 F34            6.9649    -3.4625     0.1284 F       
  35 C35            2.2505    -5.9559     2.8694 C.ar    
  36 C36            0.9979    -6.3559     2.4267 C.ar    
  37 C37            3.2700    -6.8811     2.9901 C.ar    
  38 C38            3.0448    -8.2061     2.6701 C.ar    
  39 C39            1.7935    -8.6112     2.2268 C.ar    
  40 C40            0.7693    -7.6852     2.1054 C.ar    
  41 O41            1.5725    -9.9147     1.9126 O.3     
  42 O42           -0.0043    -5.4456     2.3086 O.3     
  43 C43            2.6732   -10.8137     2.0621 C.3     
  44 C44           -1.2677    -5.9280     1.8470 C.3     
  45 C45           -2.2627    -4.7677     1.7790 C.3     
  46 C46           -7.8492    -3.9268    -8.4130 C.3     
  47 C47           -8.5809    -3.7937    -9.7501 C.3     
  48 O48            1.6607    -0.3773    -2.0585 O.3     
  49 C49            2.1544    -0.2280    -4.4195 C.3     
  50 C50            1.6186     0.5004    -3.1853 C.3     
  51 S51            2.5439    -4.2655     3.2711 S.o2    
  52 O52            3.9097    -4.1749     3.6525 O.2     
  53 O53            1.4732    -3.8617     4.1136 O.2     
  54 H54            0.7989    -0.7535     2.3587 H       
  55 H55            0.3242     1.6844     2.4767 H       
  56 H56            0.5032     3.0481     0.4378 H       
  57 H57            1.0376    -2.3517    -1.9521 H       
  58 H58            0.8615    -3.8519    -1.0105 H       
  59 H59           -3.6637    -3.4886    -1.1618 H       
  60 H60           -3.1996    -1.8040    -0.8052 H       
  61 H61           -4.6742    -2.0276    -2.8453 H       
  62 H62           -3.0971    -1.2767    -3.1898 H       
  63 H63           -1.6782    -4.2145    -4.7810 H       
  64 H64           -1.3847    -2.5267    -4.2962 H       
  65 H65           -0.1959    -3.9907    -2.7511 H       
  66 H66           -1.6803    -4.9301    -2.4431 H       
  67 H67           -3.6103    -1.9706    -5.5034 H       
  68 H68           -2.4243    -3.9701    -6.3285 H       
  69 H69           -3.7883    -5.0014    -5.8318 H       
  70 H70           -3.9073    -2.7469    -7.8867 H       
  71 H71           -3.9130    -4.4891    -8.2506 H       
  72 H72           -5.7908    -1.7505    -6.7567 H       
  73 H73           -7.1798    -2.7609    -6.2906 H       
  74 H74           -5.7679    -3.9543    -4.6442 H       
  75 H75           -5.7656    -2.2026    -4.3239 H       
  76 H76           -6.2353    -2.6256    -8.9988 H       
  77 H77           -5.9459    -4.3505    -9.3290 H       
  78 H78            3.5108    -1.4122    -1.9146 H       
  79 H79            5.1542    -4.0770     1.8955 H       
  80 H80            4.2443    -6.5678     3.3349 H       
  81 H81            3.8433    -8.9272     2.7646 H       
  82 H82           -0.2052    -7.9985     1.7610 H       
  83 H83            2.3622   -11.8192     1.7787 H       
  84 H84            3.4941   -10.4929     1.4207 H       
  85 H85            3.0030   -10.8147     3.1010 H       
  86 H86           -1.1498    -6.3640     0.8550 H       
  87 H87           -1.6406    -6.6865     2.5353 H       
  88 H88           -3.2264    -5.1356     1.4269 H       
  89 H89           -2.3807    -4.3316     2.7710 H       
  90 H90           -1.8898    -4.0092     1.0907 H       
  91 H91           -7.9741    -4.9395    -8.0297 H       
  92 H92           -8.2636    -3.2146    -7.6995 H       
  93 H93           -8.4559    -2.7810   -10.1334 H       
  94 H94           -8.1665    -4.5059   -10.4636 H       
  95 H95           -9.6416    -3.9992    -9.6058 H       
  96 H96            2.2044     0.4665    -5.2582 H       
  97 H97            3.1512    -0.6153    -4.2086 H       
  98 H98            1.4893    -1.0542    -4.6711 H       
  99 H99            0.5896     0.8116    -3.3653 H       
 100 H100           2.2338     1.3778    -2.9857 H       
@<TRIPOS>BOND
   1    1   31 1
   2    2    3 ar
   3    2    7 ar
   4    3    4 ar
   5    3   48 1
   6    4    5 ar
   7    4    8 1
   8    5    6 ar
   9    5   54 1
  10    6    7 ar
  11    6   55 1
  12    7   56 1
  13    8    9 1
  14    8   10 1
  15    8   28 1
  16    9   26 2
  17    9   27 am
  18   10   11 1
  19   10   57 1
  20   10   58 1
  21   11   12 am
  22   11   13 2
  23   12   14 1
  24   12   18 1
  25   14   15 1
  26   14   59 1
  27   14   60 1
  28   15   16 1
  29   15   61 1
  30   15   62 1
  31   16   17 1
  32   16   19 1
  33   17   18 1
  34   17   63 1
  35   17   64 1
  36   18   65 1
  37   18   66 1
  38   19   20 1
  39   19   24 1
  40   19   67 1
  41   20   21 1
  42   20   68 1
  43   20   69 1
  44   21   22 1
  45   21   70 1
  46   21   71 1
  47   22   23 1
  48   22   25 1
  49   23   24 1
  50   23   72 1
  51   23   73 1
  52   24   74 1
  53   24   75 1
  54   25   46 1
  55   25   76 1
  56   25   77 1
  57   27   51 am
  58   27   29 1
  59   28   29 ar
  60   28   30 ar
  61   29   33 ar
  62   30   31 ar
  63   30   78 1
  64   31   32 ar
  65   32   33 ar
  66   32   34 1
  67   33   79 1
  68   35   36 ar
  69   35   37 ar
  70   35   51 1
  71   36   42 1
  72   36   40 ar
  73   37   38 ar
  74   37   80 1
  75   38   39 ar
  76   38   81 1
  77   39   40 ar
  78   39   41 1
  79   40   82 1
  80   41   43 1
  81   42   44 1
  82   43   83 1
  83   43   84 1
  84   43   85 1
  85   44   45 1
  86   44   86 1
  87   44   87 1
  88   45   88 1
  89   45   89 1
  90   45   90 1
  91   46   47 1
  92   46   91 1
  93   46   92 1
  94   47   93 1
  95   47   94 1
  96   47   95 1
  97   48   50 1
  98   49   50 1
  99   49   96 1
 100   49   97 1
 101   49   98 1
 102   50   99 1
 103   50  100 1
 104   51   52 2
 105   51   53 2

#	End of record

