#	Name: ASD01670025
#	Creating user name:	WinNT
#	Creation time:	15. 06. 2019 19:22

#	Modifying user name:	WinNT
#	Modification time:	15. 06. 2019 19:22

#	Program:	/corina/corina34_cracker 3.40 0067  02.08.2006

@<TRIPOS>MOLECULE
ASD01670025
  61   63    0    0    0
SMALL
NO_CHARGES


@<TRIPOS>ATOM
   1 O1            -0.3143    -0.2254    -0.5964 O.2     
   2 C2            -0.3729     0.9795    -0.7451 C.2     
   3 N3             0.7321     1.6707    -1.0881 N.am    
   4 C4             2.0039     0.9698    -1.2816 C.3     
   5 C5             3.0730     1.9633    -1.6571 C.ar    
   6 C6             3.8248     2.5740    -0.6705 C.ar    
   7 C7             4.8054     3.4851    -1.0121 C.ar    
   8 C8             5.0356     3.7871    -2.3464 C.ar    
   9 C9             4.2799     3.1729    -3.3345 C.ar    
  10 C10            3.3043     2.2583    -2.9880 C.ar    
  11 O11            5.9994     4.6834    -2.6850 O.3     
  12 C12            6.1810     4.9455    -4.0780 C.3     
  13 C13           -1.6577     1.6861    -0.5558 C.ar    
  14 C14           -1.7284     3.0695    -0.7258 C.ar    
  15 C15           -2.9307     3.7228    -0.5480 C.ar    
  16 C16           -4.0643     3.0096    -0.2016 C.ar    
  17 C17           -4.0010     1.6377    -0.0315 C.ar    
  18 C18           -2.8066     0.9717    -0.2118 C.ar    
  19 C19           -2.7409    -0.5231    -0.0322 C.3     
  20 C20           -3.1118    -0.3938     2.3570 C.3     
  21 N21           -2.1956    -0.8332     1.2961 N.3     
  22 C22           -1.8948    -2.2657     1.4204 C.3     
  23 C23           -1.2534    -2.5301     2.7582 C.ar    
  24 C24           -1.9928    -3.0834     3.7804 C.ar    
  25 C25           -1.4084    -3.3292     5.0125 C.ar    
  26 C26           -0.0800    -3.0222     5.2294 C.ar    
  27 C27            2.5146    -2.4453     5.7203 C.3     
  28 O28            1.9853    -2.1626     4.4234 O.3     
  29 C29            0.6800    -2.4647     4.2118 C.ar    
  30 C30            0.0941    -2.2197     2.9619 C.ar    
  31 C31            0.8928    -1.6327     1.8709 C.2     
  32 O32            1.0451    -0.4287     1.8093 O.2     
  33 O33            1.4542    -2.4312     0.9419 O.3     
  34 H34            0.6853     2.6323    -1.2068 H       
  35 H35            2.2851     0.4654    -0.3572 H       
  36 H36            1.8956     0.2340    -2.0785 H       
  37 H37            3.6450     2.3389     0.3682 H       
  38 H38            5.3921     3.9622    -0.2410 H       
  39 H39            4.4572     3.4063    -4.3740 H       
  40 H40            2.7187     1.7766    -3.7571 H       
  41 H41            6.9786     5.6767    -4.2091 H       
  42 H42            6.4480     4.0209    -4.5899 H       
  43 H43            5.2550     5.3387    -4.4975 H       
  44 H44           -0.8440     3.6275    -0.9955 H       
  45 H45           -2.9868     4.7933    -0.6793 H       
  46 H46           -5.0028     3.5258    -0.0629 H       
  47 H47           -4.8897     1.0867     0.2390 H       
  48 H48           -3.7423    -0.9442    -0.1213 H       
  49 H49           -2.0965    -0.9532    -0.7990 H       
  50 H50           -4.0911    -0.8465     2.2019 H       
  51 H51           -2.7191    -0.7006     3.3264 H       
  52 H52           -3.2050     0.6919     2.3298 H       
  53 H53           -2.8183    -2.8392     1.3405 H       
  54 H54           -1.2119    -2.5639     0.6248 H       
  55 H55           -3.0330    -3.3263     3.6209 H       
  56 H56           -1.9958    -3.7632     5.8082 H       
  57 H57            0.3680    -3.2162     6.1928 H       
  58 H58            1.9585    -1.8828     6.4703 H       
  59 H59            2.4239    -3.5121     5.9251 H       
  60 H60            3.5651    -2.1567     5.7548 H       
  61 H61            1.9689    -2.0004     0.2459 H       
@<TRIPOS>BOND
   1    1    2 2
   2    2    3 am
   3    2   13 1
   4    3    4 1
   5    3   34 1
   6    4    5 1
   7    4   35 1
   8    4   36 1
   9    5    6 ar
  10    5   10 ar
  11    6    7 ar
  12    6   37 1
  13    7    8 ar
  14    7   38 1
  15    8    9 ar
  16    8   11 1
  17    9   10 ar
  18    9   39 1
  19   10   40 1
  20   11   12 1
  21   12   41 1
  22   12   42 1
  23   12   43 1
  24   13   14 ar
  25   13   18 ar
  26   14   15 ar
  27   14   44 1
  28   15   16 ar
  29   15   45 1
  30   16   17 ar
  31   16   46 1
  32   17   18 ar
  33   17   47 1
  34   18   19 1
  35   19   21 1
  36   19   48 1
  37   19   49 1
  38   20   21 1
  39   20   50 1
  40   20   51 1
  41   20   52 1
  42   21   22 1
  43   22   23 1
  44   22   53 1
  45   22   54 1
  46   23   24 ar
  47   23   30 ar
  48   24   25 ar
  49   24   55 1
  50   25   26 ar
  51   25   56 1
  52   26   29 ar
  53   26   57 1
  54   27   28 1
  55   27   58 1
  56   27   59 1
  57   27   60 1
  58   28   29 1
  59   29   30 ar
  60   30   31 1
  61   31   32 2
  62   31   33 1
  63   33   61 1

#	End of record

