#	Name: ASD09116387
#	Creating user name:	WinNT
#	Creation time:	15. 06. 2019 21:21

#	Modifying user name:	WinNT
#	Modification time:	15. 06. 2019 21:21

#	Program:	/corina/corina34_cracker 3.40 0067  02.08.2006

@<TRIPOS>MOLECULE
ASD09116387
  68   74    0    0    0
SMALL
NO_CHARGES


@<TRIPOS>ATOM
   1 N1            -0.1519     2.5954    -1.5593 N.2     
   2 N2            -0.3562     1.2091    -1.4681 N.pl3   
   3 C3             1.1224     2.8100    -1.3352 C.2     
   4 N4             1.7288     1.6387    -1.1089 N.2     
   5 C5             0.8497     0.6627    -1.1857 C.2     
   6 N6             1.1112    -0.6827    -1.0084 N.pl3   
   7 C7            -1.5639     0.5290    -1.6357 C.ar    
   8 N8             1.7453     4.0580    -1.3335 N.pl3   
   9 C9             3.0926     4.1675    -0.9681 C.ar    
  10 C10            3.8788     5.1776    -1.5081 C.ar    
  11 C11            3.6411     3.2701    -0.0618 C.ar    
  12 C12            4.9703     3.3777     0.2997 C.ar    
  13 C13            5.7583     4.3825    -0.2431 C.ar    
  14 C14            5.2085     5.2853    -1.1471 C.ar    
  15 N15           -1.5621    -0.7412    -2.0113 N.ar    
  16 N16           -2.6456    -1.4099    -2.1889 N.ar    
  17 C17           -3.8365    -0.8624    -2.0062 C.ar    
  18 C18           -3.9360     0.4679    -1.5887 C.ar    
  19 C19           -2.7742     1.1866    -1.4017 C.ar    
  20 C20           -5.0869    -1.6142    -2.2624 C.ar    
  21 C21           -6.0778    -1.0266    -3.0504 C.ar    
  22 C22           -5.8290     0.3247    -3.6625 C.3     
  23 C23           -5.9815     1.4396    -2.6313 C.3     
  24 C24           -5.2870     1.0663    -1.3244 C.3     
  25 C25           -5.2837    -2.8830    -1.7287 C.ar    
  26 C26           -6.4706    -3.5484    -1.9671 C.ar    
  27 C27           -7.4586    -2.9539    -2.7309 C.ar    
  28 C28           -7.2630    -1.6947    -3.2714 C.ar    
  29 N29            7.1063     4.4915     0.1242 N.3     
  30 F30            5.9752     6.2639    -1.6760 F       
  31 C31            7.2424     4.7109     1.5762 C.3     
  32 C32            8.3432     5.7337     1.2622 C.3     
  33 C33            7.5982     5.8677    -0.0733 C.3     
  34 N34            8.2996     6.9403     2.0990 N.3     
  35 C35            8.6563     6.6283     3.4952 C.3     
  36 C36            9.8521     7.5273     3.8735 C.3     
  37 C37            9.7426     8.6984     2.8618 C.3     
  38 C38            9.2328     7.9696     1.5936 C.3     
  39 H39            2.0126    -0.9792    -0.8076 H       
  40 H40            0.3932    -1.3305    -1.0848 H       
  41 H41            1.2452     4.8500    -1.5855 H       
  42 H42            3.4511     5.8781    -2.2100 H       
  43 H43            3.0283     2.4878     0.3611 H       
  44 H44            5.3960     2.6796     1.0053 H       
  45 H45           -2.7991     2.2214    -1.0935 H       
  46 H46           -4.8182     0.3511    -4.0695 H       
  47 H47           -6.5420     0.4867    -4.4708 H       
  48 H48           -5.5386     2.3548    -3.0243 H       
  49 H49           -7.0410     1.6083    -2.4392 H       
  50 H50           -5.9002     0.3434    -0.7865 H       
  51 H51           -5.1693     1.9608    -0.7128 H       
  52 H52           -4.5124    -3.3461    -1.1311 H       
  53 H53           -6.6272    -4.5350    -1.5566 H       
  54 H54           -8.3880    -3.4751    -2.9065 H       
  55 H55           -8.0389    -1.2358    -3.8662 H       
  56 H56            6.3570     5.1525     2.0335 H       
  57 H57            7.6040     3.8355     2.1156 H       
  58 H58            9.3408     5.3032     1.1756 H       
  59 H59            8.2615     5.9727    -0.9319 H       
  60 H60            6.8078     6.6181    -0.0562 H       
  61 H61            7.8111     6.8403     4.1501 H       
  62 H62            8.9397     5.5792     3.5799 H       
  63 H63            9.7525     7.8910     4.8962 H       
  64 H64           10.7928     6.9923     3.7434 H       
  65 H65            9.0214     9.4417     3.2015 H       
  66 H66           10.7169     9.1541     2.6852 H       
  67 H67           10.0634     7.5020     1.0648 H       
  68 H68            8.7100     8.6674     0.9393 H       
@<TRIPOS>BOND
   1    1    2 1
   2    1    3 2
   3    2    7 1
   4    2    5 1
   5    3    4 1
   6    3    8 1
   7    4    5 2
   8    5    6 1
   9    6   39 1
  10    6   40 1
  11    7   15 ar
  12    7   19 ar
  13    8    9 1
  14    8   41 1
  15    9   10 ar
  16    9   11 ar
  17   10   14 ar
  18   10   42 1
  19   11   12 ar
  20   11   43 1
  21   12   13 ar
  22   12   44 1
  23   13   14 ar
  24   13   29 1
  25   14   30 1
  26   15   16 ar
  27   16   17 ar
  28   17   18 ar
  29   17   20 1
  30   18   19 ar
  31   18   24 1
  32   19   45 1
  33   20   21 ar
  34   20   25 ar
  35   21   22 1
  36   21   28 ar
  37   22   23 1
  38   22   46 1
  39   22   47 1
  40   23   24 1
  41   23   48 1
  42   23   49 1
  43   24   50 1
  44   24   51 1
  45   25   26 ar
  46   25   52 1
  47   26   27 ar
  48   26   53 1
  49   27   28 ar
  50   27   54 1
  51   28   55 1
  52   29   31 1
  53   29   33 1
  54   31   32 1
  55   31   56 1
  56   31   57 1
  57   32   33 1
  58   32   34 1
  59   32   58 1
  60   33   59 1
  61   33   60 1
  62   34   35 1
  63   34   38 1
  64   35   36 1
  65   35   61 1
  66   35   62 1
  67   36   37 1
  68   36   63 1
  69   36   64 1
  70   37   38 1
  71   37   65 1
  72   37   66 1
  73   38   67 1
  74   38   68 1

#	End of record

