#	Name: ASD01917747
#	Creating user name:	WinNT
#	Creation time:	15. 06. 2019 20:09

#	Modifying user name:	WinNT
#	Modification time:	15. 06. 2019 20:09

#	Program:	/corina/corina34_cracker 3.40 0067  02.08.2006

@<TRIPOS>MOLECULE
ASD01917747
  36   38    0    0    0
SMALL
NO_CHARGES


@<TRIPOS>ATOM
   1 C1            -0.0167     1.3807     0.0096 C.2     
   2 C2             0.0021    -0.0041     0.0020 C.2     
   3 C3            -1.2927    -0.8016     0.0052 C.3     
   4 C4            -2.3787     0.0543    -0.6542 C.3     
   5 C5            -2.5220     1.3905     0.0746 C.3     
   6 C6            -1.2097     2.1418     0.0304 C.2     
   7 O7            -1.1810     3.3555     0.0113 O.2     
   8 S8             1.6404     1.9537    -0.0031 S.3     
   9 C9             2.2077     0.3405    -0.0141 C.2     
  10 N10            1.2168    -0.4921    -0.0093 N.2     
  11 C11            3.6613    -0.0569    -0.0282 C.3     
  12 C12            4.1408    -0.1854    -1.4754 C.3     
  13 C13            5.6166    -0.5889    -1.4898 C.3     
  14 C14            6.0889    -0.7155    -2.9153 C.ar    
  15 C15            6.6212     0.3812    -3.5670 C.ar    
  16 C16            7.0544     0.2651    -4.8746 C.ar    
  17 C17            6.9557    -0.9479    -5.5303 C.ar    
  18 C18            6.4241    -2.0448    -4.8783 C.ar    
  19 C19            5.9949    -1.9298    -3.5693 C.ar    
  20 H20           -1.1581    -1.7246    -0.5588 H       
  21 H21           -1.5793    -1.0344     1.0307 H       
  22 H22           -2.1103     0.2382    -1.6946 H       
  23 H23           -3.3286    -0.4790    -0.6192 H       
  24 H24           -3.2972     1.9854    -0.4083 H       
  25 H25           -2.7998     1.2090     1.1129 H       
  26 H26            4.2509     0.7036     0.4837 H       
  27 H27            3.7814    -1.0133     0.4806 H       
  28 H28            3.5512    -0.9460    -1.9874 H       
  29 H29            4.0207     0.7710    -1.9843 H       
  30 H30            6.2062     0.1716    -0.9779 H       
  31 H31            5.7367    -1.5454    -0.9810 H       
  32 H32            6.6984     1.3288    -3.0547 H       
  33 H33            7.4697     1.1221    -5.3840 H       
  34 H34            7.2935    -1.0384    -6.5521 H       
  35 H35            6.3467    -2.9923    -5.3907 H       
  36 H36            5.5797    -2.7868    -3.0599 H       
@<TRIPOS>BOND
   1    1    2 2
   2    1    8 1
   3    1    6 1
   4    2    3 1
   5    2   10 1
   6    3    4 1
   7    3   20 1
   8    3   21 1
   9    4    5 1
  10    4   22 1
  11    4   23 1
  12    5    6 1
  13    5   24 1
  14    5   25 1
  15    6    7 2
  16    8    9 1
  17    9   10 2
  18    9   11 1
  19   11   12 1
  20   11   26 1
  21   11   27 1
  22   12   13 1
  23   12   28 1
  24   12   29 1
  25   13   14 1
  26   13   30 1
  27   13   31 1
  28   14   15 ar
  29   14   19 ar
  30   15   16 ar
  31   15   32 1
  32   16   17 ar
  33   16   33 1
  34   17   18 ar
  35   17   34 1
  36   18   19 ar
  37   18   35 1
  38   19   36 1

#	End of record

