#	Name: ASD03091126
#	Creating user name:	WinNT
#	Creation time:	15. 06. 2019 20:30

#	Modifying user name:	WinNT
#	Modification time:	15. 06. 2019 20:30

#	Program:	/corina/corina34_cracker 3.40 0067  02.08.2006

@<TRIPOS>MOLECULE
ASD03091126
  64   68    0    0    0
SMALL
NO_CHARGES


@<TRIPOS>ATOM
   1 C1            -0.6411     1.2216    -0.1703 C.3     
   2 C2            -0.6728    -0.3004    -0.3232 C.3     
   3 C3             0.7911     1.6753     0.1195 C.3     
   4 N4            -1.1100     1.8468    -1.4095 N.am    
   5 C5            -1.6453     3.0833    -1.3797 C.2     
   6 C6            -2.1277     3.7264    -2.6544 C.3     
   7 O7            -1.7387     3.6785    -0.3272 O.2     
   8 N8            -2.6622     5.0578    -2.3578 N.am    
   9 C9            -1.8607     6.1590    -2.4957 C.2     
  10 N10           -2.2715     7.3762    -2.2489 N.2     
  11 C11           -3.5302     7.6292    -1.8364 C.ar    
  12 C12           -4.4290     6.5514    -1.6662 C.ar    
  13 C13           -3.9470     5.1924    -1.9544 C.2     
  14 C14           -0.4668     5.9637    -2.9437 C.ar    
  15 C15            0.5940     6.3802    -2.1373 C.ar    
  16 O16           -4.6737     4.2242    -1.8267 O.2     
  17 C17           -3.9634     8.9325    -1.5731 C.ar    
  18 C18           -5.2444     9.1531    -1.1559 C.ar    
  19 C19           -6.1351     8.0929    -0.9865 C.ar    
  20 C20           -5.7334     6.7925    -1.2408 C.ar    
  21 N21           -7.4415     8.3451    -0.5584 N.3     
  22 C22           -7.9186     7.2787     0.3332 C.3     
  23 C23           -8.7653     7.8631     1.4540 C.3     
  24 C24          -10.1384     8.3139     0.9983 C.3     
  25 N25          -10.3768     7.9799    -0.4132 N.3     
  26 C26           -9.7319     8.9766    -1.2816 C.3     
  27 C27           -8.3475     8.5078    -1.7016 C.3     
  28 C28          -10.1024     6.5920    -0.7178 C.3     
  29 C29           -8.6441     6.2297    -0.4895 C.3     
  30 C30           -0.2033     5.3554    -4.1748 C.ar    
  31 C31            1.8936     6.1948    -2.5606 C.ar    
  32 C32            2.1497     5.5975    -3.7823 C.ar    
  33 C33            1.1053     5.1759    -4.5864 C.ar    
  34 Cl34           1.4375     4.4273    -6.1170 Cl      
  35 F35           -1.2231     4.9439    -4.9595 F       
  36 H36           -1.2898     1.5176     0.6541 H       
  37 H37           -0.3239    -0.7655     0.5988 H       
  38 H38           -1.6931    -0.6236    -0.5297 H       
  39 H39           -0.0240    -0.5963    -1.1476 H       
  40 H40            1.4398     1.3794    -0.7049 H       
  41 H41            0.8137     2.7596     0.2284 H       
  42 H42            1.1400     1.2102     1.0415 H       
  43 H43           -1.0353     1.3707    -2.2513 H       
  44 H44           -1.2962     3.8161    -3.3534 H       
  45 H45           -2.9105     3.1112    -3.0981 H       
  46 H46            0.3974     6.8473    -1.1836 H       
  47 H47           -3.2852     9.7635    -1.6993 H       
  48 H48           -5.5725    10.1620    -0.9540 H       
  49 H49           -6.4243     5.9728    -1.1094 H       
  50 H50           -7.0483     6.7992     0.7811 H       
  51 H51           -8.8853     7.1083     2.2312 H       
  52 H52           -8.2400     8.7183     1.8792 H       
  53 H53          -10.8952     7.8255     1.6122 H       
  54 H54          -10.2196     9.3932     1.1272 H       
  55 H55          -10.3445     9.1286    -2.1702 H       
  56 H56           -9.6433     9.9194    -0.7418 H       
  57 H57           -7.9209     9.2382    -2.3891 H       
  58 H58           -8.4399     7.5521    -2.2176 H       
  59 H59          -10.7267     5.9611    -0.0850 H       
  60 H60          -10.3545     6.4025    -1.7612 H       
  61 H61           -8.1481     6.1313    -1.4551 H       
  62 H62           -8.5940     5.2737     0.0318 H       
  63 H63            2.7140     6.5171    -1.9366 H       
  64 H64            3.1696     5.4559    -4.1080 H       
@<TRIPOS>BOND
   1    1    2 1
   2    1    3 1
   3    1    4 1
   4    1   36 1
   5    2   37 1
   6    2   38 1
   7    2   39 1
   8    3   40 1
   9    3   41 1
  10    3   42 1
  11    4    5 am
  12    4   43 1
  13    5    6 1
  14    5    7 2
  15    6    8 1
  16    6   44 1
  17    6   45 1
  18    8    9 1
  19    8   13 am
  20    9   10 2
  21    9   14 1
  22   10   11 1
  23   11   12 ar
  24   11   17 ar
  25   12   13 1
  26   12   20 ar
  27   13   16 2
  28   14   15 ar
  29   14   30 ar
  30   15   31 ar
  31   15   46 1
  32   17   18 ar
  33   17   47 1
  34   18   19 ar
  35   18   48 1
  36   19   20 ar
  37   19   21 1
  38   20   49 1
  39   21   22 1
  40   21   27 1
  41   22   23 1
  42   22   29 1
  43   22   50 1
  44   23   24 1
  45   23   51 1
  46   23   52 1
  47   24   25 1
  48   24   53 1
  49   24   54 1
  50   25   26 1
  51   25   28 1
  52   26   27 1
  53   26   55 1
  54   26   56 1
  55   27   57 1
  56   27   58 1
  57   28   29 1
  58   28   59 1
  59   28   60 1
  60   29   61 1
  61   29   62 1
  62   30   35 1
  63   30   33 ar
  64   31   32 ar
  65   31   63 1
  66   32   33 ar
  67   32   64 1
  68   33   34 1

#	End of record

