#	Name: ASD02030137
#	Creating user name:	WinNT
#	Creation time:	15. 06. 2019 20:14

#	Modifying user name:	WinNT
#	Modification time:	15. 06. 2019 20:14

#	Program:	/corina/corina34_cracker 3.40 0067  02.08.2006

@<TRIPOS>MOLECULE
ASD02030137
  55   58    0    0    0
SMALL
NO_CHARGES


@<TRIPOS>ATOM
   1 N1            -0.3616     1.4606    -0.3780 N.am    
   2 C2            -0.3778    -0.0084    -0.3370 C.3     
   3 C3            -1.1635    -0.4554     0.9020 C.3     
   4 N4            -2.4423     0.2681     0.9334 N.am    
   5 C5            -2.4262     1.7371     0.8924 C.3     
   6 C6            -1.6402     2.1843    -0.3409 C.3     
   7 C7             0.8050     2.1322    -0.4428 C.2     
   8 C8             2.0858     1.3994    -0.3533 C.2     
   9 N9             3.2835     1.9397    -0.2877 N.2     
  10 N10            2.2316     0.0620    -0.3186 N.2     
  11 C11            3.5138    -0.1874    -0.2377 C.2     
  12 N12            4.1591     0.9969    -0.2192 N.pl3   
  13 O13            0.8042     3.3407    -0.5749 O.2     
  14 C14           -3.6090    -0.4036     0.9983 C.2     
  15 C15           -3.6155    -1.8810     0.9436 C.ar    
  16 O16           -4.6559     0.2054     1.1017 O.2     
  17 C17           -1.3779     3.6897    -0.2646 C.3     
  18 C18           -2.4407     1.8624    -1.6044 C.3     
  19 C19            5.5473     1.1723    -0.1395 C.ar    
  20 C20            6.0871     2.4510    -0.1289 C.ar    
  21 C21            7.4569     2.6206    -0.0497 C.ar    
  22 C22            8.2888     1.5170     0.0185 C.ar    
  23 C23            7.7529     0.2422     0.0081 C.ar    
  24 C24            6.3850     0.0671    -0.0651 C.ar    
  25 C25           -2.7224    -2.6153     1.7259 C.ar    
  26 Cl26           8.1337     4.2192    -0.0364 Cl      
  27 C27           -4.5182    -2.5477     0.1141 C.ar    
  28 C28           -4.5190    -3.9267     0.0678 C.ar    
  29 C29           -3.6278    -4.6483     0.8416 C.ar    
  30 C30           -2.7336    -3.9935     1.6702 C.ar    
  31 C31           -5.4932    -4.6483    -0.8274 C.3     
  32 F32           -4.9156    -4.8391    -2.0872 F       
  33 F33           -5.8098    -5.8903    -0.2667 F       
  34 F34           -6.6585    -3.8855    -0.9593 F       
  35 H35           -0.8603    -0.3942    -1.2350 H       
  36 H36            0.6438    -0.3839    -0.2775 H       
  37 H37           -1.3511    -1.5279     0.8489 H       
  38 H38           -0.5910    -0.2258     1.8007 H       
  39 H39           -3.4477     2.1126     0.8330 H       
  40 H40           -1.9436     2.1228     1.7904 H       
  41 H41            3.9719    -1.1643    -0.1909 H       
  42 H42           -0.7137     3.9007     0.5735 H       
  43 H43           -0.9115     4.0246    -1.1911 H       
  44 H44           -2.3216     4.2162    -0.1218 H       
  45 H45           -3.3954     2.3876    -1.5734 H       
  46 H46           -1.8786     2.1820    -2.4819 H       
  47 H47           -2.6185     0.7883    -1.6582 H       
  48 H48            5.4379     3.3124    -0.1829 H       
  49 H49            9.3587     1.6513     0.0796 H       
  50 H50            8.4046    -0.6173     0.0611 H       
  51 H51            5.9674    -0.9289    -0.0728 H       
  52 H52           -2.0240    -2.1055     2.3730 H       
  53 H53           -5.2150    -1.9855    -0.4899 H       
  54 H54           -3.6330    -5.7276     0.8022 H       
  55 H55           -2.0404    -4.5627     2.2717 H       
@<TRIPOS>BOND
   1    1    2 1
   2    1    7 am
   3    1    6 1
   4    2    3 1
   5    2   35 1
   6    2   36 1
   7    3    4 1
   8    3   37 1
   9    3   38 1
  10    4    5 1
  11    4   14 am
  12    5    6 1
  13    5   39 1
  14    5   40 1
  15    6   17 1
  16    6   18 1
  17    7    8 1
  18    7   13 2
  19    8    9 2
  20    8   10 1
  21    9   12 1
  22   10   11 2
  23   11   12 1
  24   11   41 1
  25   12   19 1
  26   14   15 1
  27   14   16 2
  28   15   27 ar
  29   15   25 ar
  30   17   42 1
  31   17   43 1
  32   17   44 1
  33   18   45 1
  34   18   46 1
  35   18   47 1
  36   19   20 ar
  37   19   24 ar
  38   20   21 ar
  39   20   48 1
  40   21   22 ar
  41   21   26 1
  42   22   23 ar
  43   22   49 1
  44   23   24 ar
  45   23   50 1
  46   24   51 1
  47   25   30 ar
  48   25   52 1
  49   27   28 ar
  50   27   53 1
  51   28   29 ar
  52   28   31 1
  53   29   30 ar
  54   29   54 1
  55   30   55 1
  56   31   32 1
  57   31   33 1
  58   31   34 1

#	End of record

