#	Name: ASD03731795
#	Creating user name:	WinNT
#	Creation time:	15. 06. 2019 20:46

#	Modifying user name:	WinNT
#	Modification time:	15. 06. 2019 20:46

#	Program:	/corina/corina34_cracker 3.40 0067  02.08.2006

@<TRIPOS>MOLECULE
ASD03731795
  39   41    0    0    0
SMALL
NO_CHARGES


@<TRIPOS>ATOM
   1 C1             0.1197     1.4720    -0.0163 C.2     
   2 C2             0.1035    -0.0039    -0.0175 C.ar    
   3 C3             1.2947    -0.7174    -0.1765 C.ar    
   4 C4             1.2753    -2.0950    -0.1771 C.ar    
   5 C5             0.0716    -2.7752    -0.0202 C.ar    
   6 C6            -1.1143    -2.0685     0.1381 C.ar    
   7 C7            -1.1019    -0.6911     0.1460 C.ar    
   8 O8             1.1702     2.0686    -0.1537 O.2     
   9 N9            -1.0307     2.1584     0.1316 N.am    
  10 O10            0.0558    -4.1322    -0.0222 O.3     
  11 C11            0.2830    -4.7741     1.1526 C.ar    
  12 C12            0.5891    -4.0573     2.2876 C.ar    
  13 C13            0.8239    -4.7049     3.4972 C.ar    
  14 C14            0.7578    -6.0614     3.5922 C.ar    
  15 C15            0.4479    -6.8293     2.4571 C.ar    
  16 C16            0.3731    -8.2314     2.5246 C.ar    
  17 C17            0.0709    -8.9445     1.4055 C.ar    
  18 C18           -0.1660    -8.3053     0.1900 C.ar    
  19 C19           -0.1021    -6.9493     0.0874 C.ar    
  20 C20            0.2017    -6.1800     1.2220 C.ar    
  21 S21           -1.0126     3.8143     0.1330 S.o2    
  22 O22           -2.3713     4.1795     0.3326 O.2     
  23 O23           -0.0152     4.1530     1.0868 O.2     
  24 C24           -0.4721     4.2625    -1.5396 C.3     
  25 Cl25           2.7539    -2.9830    -0.3745 Cl      
  26 H26            2.2290    -0.1897    -0.2990 H       
  27 H27           -2.0467    -2.5999     0.2593 H       
  28 H28           -2.0236    -0.1430     0.2739 H       
  29 H29           -1.8693     1.6825     0.2372 H       
  30 H30            0.6481    -2.9800     2.2387 H       
  31 H31            1.0627    -4.1218     4.3744 H       
  32 H32            0.9436    -6.5468     4.5390 H       
  33 H33            0.5549    -8.7403     3.4597 H       
  34 H34            0.0141   -10.0216     1.4601 H       
  35 H35           -0.4033    -8.8944    -0.6836 H       
  36 H36           -0.2881    -6.4674    -0.8611 H       
  37 H37           -1.1778     3.8639    -2.2685 H       
  38 H38           -0.4312     5.3480    -1.6296 H       
  39 H39            0.5173     3.8448    -1.7258 H       
@<TRIPOS>BOND
   1    1    2 1
   2    1    8 2
   3    1    9 am
   4    2    3 ar
   5    2    7 ar
   6    3    4 ar
   7    3   26 1
   8    4    5 ar
   9    4   25 1
  10    5    6 ar
  11    5   10 1
  12    6    7 ar
  13    6   27 1
  14    7   28 1
  15    9   21 am
  16    9   29 1
  17   10   11 1
  18   11   12 ar
  19   11   20 ar
  20   12   13 ar
  21   12   30 1
  22   13   14 ar
  23   13   31 1
  24   14   15 ar
  25   14   32 1
  26   15   16 ar
  27   15   20 ar
  28   16   17 ar
  29   16   33 1
  30   17   18 ar
  31   17   34 1
  32   18   19 ar
  33   18   35 1
  34   19   20 ar
  35   19   36 1
  36   21   22 2
  37   21   23 2
  38   21   24 1
  39   24   37 1
  40   24   38 1
  41   24   39 1

#	End of record

