#	Name: ASD01470040
#	Creating user name:	WinNT
#	Creation time:	15. 06. 2019 19:21

#	Modifying user name:	WinNT
#	Modification time:	15. 06. 2019 19:21

#	Program:	/corina/corina34_cracker 3.40 0067  02.08.2006

@<TRIPOS>MOLECULE
ASD01470040
  89   95    0    0    0
SMALL
NO_CHARGES


@<TRIPOS>ATOM
   1 N1            -1.7321     1.4080     0.5984 N.am    
   2 C2            -0.4027     0.9681     0.1838 C.3     
   3 C3             0.1483    -0.0863     1.1541 C.3     
   4 C4            -0.3202    -1.4879     0.7949 C.3     
   5 C5            -1.6957    -1.4674     0.1489 C.3     
   6 N6            -2.6546    -0.7488     0.9889 N.am    
   7 C7            -2.6877     0.5949     1.0192 C.2     
   8 O8            -3.6937     1.1110     1.4664 O.2     
   9 C9            -3.5943    -1.5079     1.8178 C.3     
  10 C10           -2.0248     2.8427     0.5509 C.3     
  11 C11           -1.7475     3.4568     1.8989 C.ar    
  12 C12           -3.0240    -1.6703     3.2033 C.ar    
  13 C13           -3.1598    -0.6618     4.1125 C.ar    
  14 C14           -2.6303    -0.8140     5.3990 C.ar    
  15 C15           -1.9631    -2.0059     5.7412 C.ar    
  16 C16           -1.8403    -3.0179     4.7922 C.ar    
  17 C17           -2.3698    -2.8479     3.5446 C.ar    
  18 C18           -0.4628     3.8523     2.2260 C.ar    
  19 C19           -0.1996     4.4166     3.4618 C.ar    
  20 C20           -1.2182     4.5888     4.3758 C.ar    
  21 C21           -2.5169     4.1923     4.0519 C.ar    
  22 C22           -2.7765     3.6286     2.8019 C.ar    
  23 C23           -2.5926     0.0328     6.5869 C.2     
  24 N24           -1.9606    -0.6195     7.5204 N.2     
  25 N25           -1.5587    -1.8716     7.0437 N.pl3   
  26 C26           -0.4861     0.3662    -1.2204 C.3     
  27 O27            1.5763    -0.0503     1.1167 O.3     
  28 C28            0.3667     1.1739    -2.1645 C.ar    
  29 C29            1.6664     0.7834    -2.4279 C.ar    
  30 C30            2.4486     1.5242    -3.2939 C.ar    
  31 C31            1.9311     2.6554    -3.8970 C.ar    
  32 C32            0.6312     3.0453    -3.6343 C.ar    
  33 C33           -0.1525     2.3020    -2.7716 C.ar    
  34 C34           -2.1797    -2.9049    -0.0517 C.3     
  35 O35           -0.3739    -2.2810     1.9825 O.3     
  36 C36           -1.2706    -3.6099    -1.0251 C.ar    
  37 C37           -0.1307    -4.2458    -0.5701 C.ar    
  38 C38            0.7032    -4.8924    -1.4631 C.ar    
  39 C39            0.3970    -4.9034    -2.8110 C.ar    
  40 C40           -0.7434    -4.2683    -3.2660 C.ar    
  41 C41           -1.5795    -3.6254    -2.3724 C.ar    
  42 C42           -3.6134     4.3734     5.0269 C.2     
  43 N43           -3.3836     5.0194     6.1872 N.am    
  44 O44           -4.7222     3.9397     4.7820 O.2     
  45 C45           -4.4382     5.1025     7.2007 C.3     
  46 N46           -3.8722     5.5221     8.4961 N.3     
  47 C47           -4.3349     6.8271     8.9764 C.3     
  48 C48           -5.7831     7.0808     8.4738 C.3     
  49 S49           -5.6430     6.4157     6.7614 S.3     
  50 H50            0.2699     1.8256     0.1656 H       
  51 H51           -0.1875     0.1515     2.1634 H       
  52 H52            0.3923    -1.9350     0.1017 H       
  53 H53           -1.6292    -0.9754    -0.8215 H       
  54 H54           -4.5421    -0.9728     1.8755 H       
  55 H55           -3.7579    -2.4903     1.3748 H       
  56 H56           -1.3947     3.3174    -0.2012 H       
  57 H57           -3.0733     2.9912     0.2928 H       
  58 H58           -3.6729     0.2488     3.8407 H       
  59 H59           -1.3304    -3.9363     5.0431 H       
  60 H60           -2.2725    -3.6355     2.8120 H       
  61 H61            0.3382     3.7197     1.5139 H       
  62 H62            0.8057     4.7226     3.7113 H       
  63 H63           -1.0113     5.0290     5.3401 H       
  64 H64           -3.7791     3.3201     2.5450 H       
  65 H65           -3.0135     1.0234     6.6760 H       
  66 H66           -1.0721    -2.5381     7.5534 H       
  67 H67           -0.1272    -0.6628    -1.1965 H       
  68 H68           -1.5212     0.3822    -1.5617 H       
  69 H69            2.0014    -0.6896     1.7047 H       
  70 H70            2.0707    -0.1004    -1.9568 H       
  71 H71            3.4642     1.2196    -3.4991 H       
  72 H72            2.5425     3.2346    -4.5731 H       
  73 H73            0.2270     3.9293    -4.1052 H       
  74 H74           -1.1681     2.6067    -2.5664 H       
  75 H75           -2.1658    -3.4296     0.9037 H       
  76 H76           -3.1959    -2.8945    -0.4457 H       
  77 H77            0.4756    -2.3677     2.4363 H       
  78 H78            0.1086    -4.2372     0.4830 H       
  79 H79            1.5942    -5.3887    -1.1076 H       
  80 H80            1.0489    -5.4080    -3.5088 H       
  81 H81           -0.9824    -4.2766    -4.3191 H       
  82 H82           -2.4705    -3.1291    -2.7279 H       
  83 H83           -2.5199     5.4293     6.3513 H       
  84 H84           -4.9427     4.1415     7.3011 H       
  85 H85           -4.0079     4.8098     9.1978 H       
  86 H86           -4.3211     6.8391    10.0662 H       
  87 H87           -3.6764     7.6084     8.5967 H       
  88 H88           -6.5103     6.5184     9.0594 H       
  89 H89           -6.0201     8.1447     8.4678 H       
@<TRIPOS>BOND
   1    1    2 1
   2    1   10 1
   3    1    7 am
   4    2    3 1
   5    2   26 1
   6    2   50 1
   7    3    4 1
   8    3   27 1
   9    3   51 1
  10    4    5 1
  11    4   35 1
  12    4   52 1
  13    5    6 1
  14    5   34 1
  15    5   53 1
  16    6    7 am
  17    6    9 1
  18    7    8 2
  19    9   12 1
  20    9   54 1
  21    9   55 1
  22   10   11 1
  23   10   56 1
  24   10   57 1
  25   11   18 ar
  26   11   22 ar
  27   12   13 ar
  28   12   17 ar
  29   13   14 ar
  30   13   58 1
  31   14   15 ar
  32   14   23 1
  33   15   16 ar
  34   15   25 1
  35   16   17 ar
  36   16   59 1
  37   17   60 1
  38   18   19 ar
  39   18   61 1
  40   19   20 ar
  41   19   62 1
  42   20   21 ar
  43   20   63 1
  44   21   22 ar
  45   21   42 1
  46   22   64 1
  47   23   24 2
  48   23   65 1
  49   24   25 1
  50   25   66 1
  51   26   28 1
  52   26   67 1
  53   26   68 1
  54   27   69 1
  55   28   29 ar
  56   28   33 ar
  57   29   30 ar
  58   29   70 1
  59   30   31 ar
  60   30   71 1
  61   31   32 ar
  62   31   72 1
  63   32   33 ar
  64   32   73 1
  65   33   74 1
  66   34   36 1
  67   34   75 1
  68   34   76 1
  69   35   77 1
  70   36   37 ar
  71   36   41 ar
  72   37   38 ar
  73   37   78 1
  74   38   39 ar
  75   38   79 1
  76   39   40 ar
  77   39   80 1
  78   40   41 ar
  79   40   81 1
  80   41   82 1
  81   42   43 am
  82   42   44 2
  83   43   45 1
  84   43   83 1
  85   45   46 1
  86   45   49 1
  87   45   84 1
  88   46   47 1
  89   46   85 1
  90   47   48 1
  91   47   86 1
  92   47   87 1
  93   48   49 1
  94   48   88 1
  95   48   89 1

#	End of record

