#	Name: ASD01478009
#	Creating user name:	WinNT
#	Creation time:	15. 06. 2019 19:21

#	Modifying user name:	WinNT
#	Modification time:	15. 06. 2019 19:21

#	Program:	/corina/corina34_cracker 3.40 0067  02.08.2006

@<TRIPOS>MOLECULE
ASD01478009
  79   81    0    0    0
SMALL
NO_CHARGES


@<TRIPOS>ATOM
   1 C1             1.5794     1.3021     1.9361 C.3     
   2 C2             3.0123     2.0711     0.1893 C.2     
   3 O3             2.8039     1.9588     1.5147 O.3     
   4 N4             4.1293     2.6702    -0.2689 N.am    
   5 O5             2.1934     1.6324    -0.5939 O.2     
   6 C6             3.6469     4.0430    -2.2346 C.3     
   7 C7             4.3561     2.7925    -1.7111 C.3     
   8 C8             5.8574     2.9058    -1.9835 C.3     
   9 C9             6.1029     2.9080    -3.4936 C.3     
  10 N10            7.5441     2.8684    -3.7541 N.am    
  11 S11            8.2964     1.4189    -4.0285 S.o2    
  12 C12            8.2396     1.1222    -5.7644 C.ar    
  13 C13            9.2640     1.5740    -6.5757 C.ar    
  14 C14            9.2218     1.3427    -7.9370 C.ar    
  15 C15            8.1504     0.6563    -8.4898 C.ar    
  16 C16            7.1239     0.2039    -7.6737 C.ar    
  17 C17            7.1735     0.4329    -6.3122 C.ar    
  18 O18            9.6655     1.6086    -3.6984 O.2     
  19 O19            7.4820     0.4234    -3.4244 O.2     
  20 C20            8.3196     4.1112    -3.7718 C.3     
  21 C21            7.8417     4.9942    -4.9263 C.3     
  22 C22            8.5447     6.3512    -4.8553 C.3     
  23 C23            8.1734     4.3169    -6.2575 C.3     
  24 O24            6.3536     4.1209    -1.4184 O.3     
  25 C25            1.8367    -0.1797     2.0791 C.3     
  26 O26            0.6426    -0.8645     1.6777 O.3     
  27 C27           -0.3506    -1.0146     2.5993 C.3     
  28 C28           -0.8880     0.3580     3.0663 C.3     
  29 C29            0.1166     0.9949     3.9961 C.3     
  30 C30            1.1101     1.9168     3.2616 C.3     
  31 O31           -0.5848     1.7617     4.9770 O.3     
  32 C32            2.1572     3.8784    -2.0778 C.ar    
  33 C33            1.5344     4.2938    -0.9157 C.ar    
  34 C34            0.1679     4.1428    -0.7718 C.ar    
  35 C35           -0.5759     3.5768    -1.7903 C.ar    
  36 C36            0.0467     3.1624    -2.9529 C.ar    
  37 C37            1.4126     3.3173    -3.0984 C.ar    
  38 O38            8.1064     0.4278    -9.8288 O.3     
  39 C39            6.9733    -0.2852   -10.3283 C.3     
  40 H40            0.8113     1.4595     1.1789 H       
  41 H41            4.7831     3.0205     0.3563 H       
  42 H42            3.9781     4.9128    -1.6673 H       
  43 H43            3.8881     4.1831    -3.2884 H       
  44 H44            3.9605     1.9118    -2.2170 H       
  45 H45            6.3734     2.0581    -1.5327 H       
  46 H46            5.6289     2.0339    -3.9401 H       
  47 H47            5.6797     3.8131    -3.9293 H       
  48 H48           10.0976     2.1086    -6.1448 H       
  49 H49           10.0220     1.6961    -8.5703 H       
  50 H50            6.2888    -0.3307    -8.1017 H       
  51 H51            6.3746     0.0810    -5.6764 H       
  52 H52            8.1807     4.6396    -2.8286 H       
  53 H53            9.3760     3.8783    -3.9057 H       
  54 H54            6.7640     5.1389    -4.8509 H       
  55 H55            9.6224     6.2064    -4.9307 H       
  56 H56            8.2042     6.9803    -5.6778 H       
  57 H57            8.3084     6.8337    -3.9069 H       
  58 H58            7.6782     3.3471    -6.3052 H       
  59 H59            7.8268     4.9427    -7.0799 H       
  60 H60            9.2518     4.1784    -6.3359 H       
  61 H61            6.0037     4.9202    -1.8353 H       
  62 H62            2.6666    -0.4751     1.4371 H       
  63 H63            2.0683    -0.4168     3.1175 H       
  64 H64           -1.1662    -1.5862     2.1564 H       
  65 H65            0.0393    -1.5577     3.4602 H       
  66 H66           -1.0425     1.0022     2.2007 H       
  67 H67           -1.8332     0.2195     3.5912 H       
  68 H68            0.6755     0.2078     4.5021 H       
  69 H69            1.9763     2.0873     3.9010 H       
  70 H70            0.6257     2.8720     3.0589 H       
  71 H71           -1.1953     1.2432     5.5188 H       
  72 H72            2.1156     4.7359    -0.1200 H       
  73 H73           -0.3185     4.4666     0.1364 H       
  74 H74           -1.6435     3.4582    -1.6777 H       
  75 H75           -0.5344     2.7199    -3.7484 H       
  76 H76            1.8985     2.9969    -4.0082 H       
  77 H77            6.9285    -1.2693    -9.8617 H       
  78 H78            6.0639     0.2689   -10.0957 H       
  79 H79            7.0630    -0.3992   -11.4086 H       
@<TRIPOS>BOND
   1    1   25 1
   2    1    3 1
   3    1   30 1
   4    1   40 1
   5    2    3 1
   6    2    4 am
   7    2    5 2
   8    4    7 1
   9    4   41 1
  10    6    7 1
  11    6   32 1
  12    6   42 1
  13    6   43 1
  14    7    8 1
  15    7   44 1
  16    8    9 1
  17    8   24 1
  18    8   45 1
  19    9   10 1
  20    9   46 1
  21    9   47 1
  22   10   11 am
  23   10   20 1
  24   11   12 1
  25   11   18 2
  26   11   19 2
  27   12   13 ar
  28   12   17 ar
  29   13   14 ar
  30   13   48 1
  31   14   15 ar
  32   14   49 1
  33   15   16 ar
  34   15   38 1
  35   16   17 ar
  36   16   50 1
  37   17   51 1
  38   20   21 1
  39   20   52 1
  40   20   53 1
  41   21   22 1
  42   21   23 1
  43   21   54 1
  44   22   55 1
  45   22   56 1
  46   22   57 1
  47   23   58 1
  48   23   59 1
  49   23   60 1
  50   24   61 1
  51   25   26 1
  52   25   62 1
  53   25   63 1
  54   26   27 1
  55   27   28 1
  56   27   64 1
  57   27   65 1
  58   28   29 1
  59   28   66 1
  60   28   67 1
  61   29   30 1
  62   29   31 1
  63   29   68 1
  64   30   69 1
  65   30   70 1
  66   31   71 1
  67   32   33 ar
  68   32   37 ar
  69   33   34 ar
  70   33   72 1
  71   34   35 ar
  72   34   73 1
  73   35   36 ar
  74   35   74 1
  75   36   37 ar
  76   36   75 1
  77   37   76 1
  78   38   39 1
  79   39   77 1
  80   39   78 1
  81   39   79 1

#	End of record

