#	Name: ASD03240496
#	Creating user name:	WinNT
#	Creation time:	15. 06. 2019 20:35

#	Modifying user name:	WinNT
#	Modification time:	15. 06. 2019 20:35

#	Program:	/corina/corina34_cracker 3.40 0067  02.08.2006

@<TRIPOS>MOLECULE
ASD03240496
  49   52    0    0    0
SMALL
NO_CHARGES


@<TRIPOS>ATOM
   1 C1            -0.2011     1.4513     0.3208 C.ar    
   2 C2            -0.0652     0.1082     0.0197 C.ar    
   3 C3             0.9046     2.2776     0.3156 C.ar    
   4 C4             2.1589     1.7565     0.0065 C.ar    
   5 C5             2.2902     0.4031    -0.2961 C.ar    
   6 C6             1.1781    -0.4144    -0.2876 C.ar    
   7 C7             3.3517     2.6407    -0.0011 C.2     
   8 C8             4.6322     2.2646    -0.2843 C.2     
   9 N9             5.4112     3.3603    -0.1821 N.pl3   
  10 N10            4.5982     4.4436     0.1728 N.2     
  11 C11            3.3660     4.0213     0.2770 C.2     
  12 C12           -1.2759    -0.7891     0.0269 C.3     
  13 C13           -1.3584    -1.5450    -1.3009 C.3     
  14 C14           -1.1632    -1.7758     1.1604 C.ar    
  15 C15           -2.0298    -1.6962     2.2344 C.ar    
  16 C16           -1.9269    -2.6008     3.2743 C.ar    
  17 C17           -0.9563    -3.5861     3.2402 C.ar    
  18 C18           -0.0892    -3.6653     2.1650 C.ar    
  19 C19           -0.1967    -2.7636     1.1230 C.ar    
  20 Cl20          -0.8261    -4.7224     4.5462 Cl      
  21 N21           -2.5880    -2.3482    -1.3314 N.3     
  22 C22           -2.7477    -3.0174    -2.6300 C.3     
  23 C23           -3.9945    -3.9044    -2.5939 C.3     
  24 N24           -5.1701    -3.0798    -2.2814 N.3     
  25 C25           -5.0104    -2.4106    -0.9828 C.3     
  26 C26           -3.7636    -1.5237    -1.0190 C.3     
  27 H27           -1.1747     1.8552     0.5559 H       
  28 H28            0.7973     3.3262     0.5506 H       
  29 H29            3.2604    -0.0059    -0.5364 H       
  30 H30            1.2788    -1.4639    -0.5216 H       
  31 H31            4.9622     1.2694    -0.5435 H       
  32 H32            6.3695     3.3925    -0.3288 H       
  33 H33            2.5090     4.6245     0.5378 H       
  34 H34           -2.1743    -0.1861     0.1581 H       
  35 H35           -1.3699    -0.8316    -2.1249 H       
  36 H36           -0.4934    -2.2008    -1.4000 H       
  37 H37           -2.7873    -0.9268     2.2611 H       
  38 H38           -2.6039    -2.5383     4.1135 H       
  39 H39            0.6687    -4.4342     2.1378 H       
  40 H40            0.4801    -2.8253     0.2837 H       
  41 H41           -2.8570    -2.2683    -3.4142 H       
  42 H42           -1.8703    -3.6315    -2.8330 H       
  43 H43           -4.1312    -4.3793    -3.5654 H       
  44 H44           -3.8737    -4.6705    -1.8280 H       
  45 H45           -5.3467    -2.4093    -3.0144 H       
  46 H46           -5.8878    -1.7965    -0.7798 H       
  47 H47           -4.9012    -3.1598    -0.1987 H       
  48 H48           -3.6269    -1.0488    -0.0474 H       
  49 H49           -3.8844    -0.7576    -1.7848 H       
@<TRIPOS>BOND
   1    1    2 ar
   2    1    3 ar
   3    1   27 1
   4    2   12 1
   5    2    6 ar
   6    3    4 ar
   7    3   28 1
   8    4    5 ar
   9    4    7 1
  10    5    6 ar
  11    5   29 1
  12    6   30 1
  13    7    8 2
  14    7   11 1
  15    8    9 1
  16    8   31 1
  17    9   10 1
  18    9   32 1
  19   10   11 2
  20   11   33 1
  21   12   13 1
  22   12   14 1
  23   12   34 1
  24   13   21 1
  25   13   35 1
  26   13   36 1
  27   14   15 ar
  28   14   19 ar
  29   15   16 ar
  30   15   37 1
  31   16   17 ar
  32   16   38 1
  33   17   18 ar
  34   17   20 1
  35   18   19 ar
  36   18   39 1
  37   19   40 1
  38   21   22 1
  39   21   26 1
  40   22   23 1
  41   22   41 1
  42   22   42 1
  43   23   24 1
  44   23   43 1
  45   23   44 1
  46   24   25 1
  47   24   45 1
  48   25   26 1
  49   25   46 1
  50   25   47 1
  51   26   48 1
  52   26   49 1

#	End of record

