#	Name: ASD01900479
#	Creating user name:	WinNT
#	Creation time:	15. 06. 2019 19:52

#	Modifying user name:	WinNT
#	Modification time:	15. 06. 2019 19:52

#	Program:	/corina/corina34_cracker 3.40 0067  02.08.2006

@<TRIPOS>MOLECULE
ASD01900479
  36   39    0    0    0
SMALL
NO_CHARGES


@<TRIPOS>ATOM
   1 C1             0.3960     4.0166     0.2491 C.ar    
   2 C2             0.8782     4.9452     1.1912 C.ar    
   3 C3             2.2480     5.1992     1.2515 C.ar    
   4 C4             3.0768     4.5234     0.3777 C.ar    
   5 C5             2.5322     3.6206    -0.5262 C.ar    
   6 N6             1.2393     3.3927    -0.5700 N.ar    
   7 N7            -1.3641     4.8018     1.3914 N.2     
   8 N8            -0.2072     5.4164     1.8815 N.pl3   
   9 C9            -1.0574     3.9754     0.4269 C.2     
  10 N10           -1.9548     3.1867    -0.2996 N.pl3   
  11 C11           -3.3322     3.3319    -0.1021 C.ar    
  12 C12           -3.8553     4.5653     0.2654 C.ar    
  13 C13           -5.2156     4.7077     0.4597 C.ar    
  14 C14           -6.0594     3.6183     0.2876 C.ar    
  15 C15           -5.5371     2.3870    -0.0788 C.ar    
  16 C16           -4.1778     2.2446    -0.2790 C.ar    
  17 O17           -7.3985     3.7588     0.4789 O.3     
  18 C18           -8.9089     2.5533    -0.9176 C.ar    
  19 C19           -8.1907     2.6760     0.2637 C.ar    
  20 C20           -8.2929     1.6750     1.2239 C.ar    
  21 C21           -9.1143     0.5884     0.9583 C.ar    
  22 C22           -9.7990     0.5379    -0.2441 C.ar    
  23 N23           -9.6786     1.5052    -1.1322 N.ar    
  24 F24           -9.2439    -0.4079     1.8615 F       
  25 Cl25          -5.8701     6.2485     0.9195 Cl      
  26 H26            2.6500     5.9059     1.9624 H       
  27 H27            4.1427     4.6963     0.3970 H       
  28 H28            3.1852     3.0950    -1.2071 H       
  29 H29           -0.1780     6.0716     2.5962 H       
  30 H30           -1.6224     2.5389    -0.9405 H       
  31 H31           -3.1988     5.4123     0.3995 H       
  32 H32           -6.1939     1.5400    -0.2117 H       
  33 H33           -3.7721     1.2865    -0.5686 H       
  34 H34           -8.8398     3.3275    -1.6675 H       
  35 H35           -7.7463     1.7414     2.1530 H       
  36 H36          -10.4397    -0.3049    -0.4576 H       
@<TRIPOS>BOND
   1    1    2 ar
   2    1    6 ar
   3    1    9 1
   4    2    3 ar
   5    2    8 1
   6    3    4 ar
   7    3   26 1
   8    4    5 ar
   9    4   27 1
  10    5    6 ar
  11    5   28 1
  12    7    8 1
  13    7    9 2
  14    8   29 1
  15    9   10 1
  16   10   11 1
  17   10   30 1
  18   11   12 ar
  19   11   16 ar
  20   12   13 ar
  21   12   31 1
  22   13   14 ar
  23   13   25 1
  24   14   15 ar
  25   14   17 1
  26   15   16 ar
  27   15   32 1
  28   16   33 1
  29   17   19 1
  30   18   19 ar
  31   18   23 ar
  32   18   34 1
  33   19   20 ar
  34   20   21 ar
  35   20   35 1
  36   21   22 ar
  37   21   24 1
  38   22   23 ar
  39   22   36 1

#	End of record

