#	Name: ASD02198055
#	Creating user name:	WinNT
#	Creation time:	15. 06. 2019 20:18

#	Modifying user name:	WinNT
#	Modification time:	15. 06. 2019 20:18

#	Program:	/corina/corina34_cracker 3.40 0067  02.08.2006

@<TRIPOS>MOLECULE
ASD02198055
  46   49    0    0    0
SMALL
NO_CHARGES


@<TRIPOS>ATOM
   1 C1             0.0409     1.7390    -0.1311 C.2     
   2 C2             0.1538     0.3650    -0.1404 C.2     
   3 C3            -0.9656    -0.5115     0.0302 C.1     
   4 S4             1.5614     2.4752    -0.3609 S.3     
   5 C5             2.3707     0.9205    -0.4726 C.2     
   6 C6             1.4560    -0.0938    -0.3312 C.2     
   7 C7             3.7539     0.7405    -0.6778 C.2     
   8 C8             4.6158     1.9056    -0.9638 C.2     
   9 O9             4.2387    -0.3769    -0.6191 O.2     
  10 N10            1.7937    -1.4384    -0.3733 N.pl3   
  11 N11           -1.1410     2.4241     0.0354 N.pl3   
  12 N12           -1.8537    -1.2069     0.1655 N.1     
  13 C13           -1.1297     3.8166     0.1670 C.ar    
  14 C14           -2.2061     4.5693    -0.2922 C.ar    
  15 C15            4.1858     3.2344    -1.1745 C.2     
  16 N16            5.2400     3.9714    -1.3962 N.2     
  17 N17            6.3794     3.1610    -1.3388 N.pl3   
  18 C18            5.9912     1.8997    -1.0689 C.2     
  19 C19            7.7005     3.5897    -1.5260 C.ar    
  20 C20            7.9822     4.5975    -2.4385 C.ar    
  21 C21            6.8926     0.7014    -0.9186 C.3     
  22 C22           -0.0471     4.4505     0.7612 C.ar    
  23 C23           -0.0390     5.8262     0.8902 C.ar    
  24 C24           -1.1074     6.5725     0.4290 C.ar    
  25 C25           -2.1908     5.9453    -0.1596 C.ar    
  26 F26           -3.2641     3.9565    -0.8670 F       
  27 C27            8.7297     3.0114    -0.7950 C.ar    
  28 C28           10.0306     3.4364    -0.9813 C.ar    
  29 C29           10.3085     4.4371    -1.8943 C.ar    
  30 C30            9.2851     5.0182    -2.6203 C.ar    
  31 H31            2.7172    -1.7025    -0.5085 H       
  32 H32            1.1063    -2.1146    -0.2676 H       
  33 H33           -1.9819     1.9413     0.0614 H       
  34 H34            3.1629     3.5802    -1.1560 H       
  35 H35            7.1833     5.0518    -3.0058 H       
  36 H36            7.1940     0.6020     0.1242 H       
  37 H37            6.3583    -0.1964    -1.2295 H       
  38 H38            7.7773     0.8318    -1.5417 H       
  39 H39            0.7880     3.8689     1.1227 H       
  40 H40            0.8033     6.3193     1.3525 H       
  41 H41           -1.0979     7.6475     0.5318 H       
  42 H42           -3.0237     6.5313    -0.5192 H       
  43 H43            8.5132     2.2304    -0.0812 H       
  44 H44           10.8315     2.9870    -0.4130 H       
  45 H45           11.3265     4.7680    -2.0380 H       
  46 H46            9.5053     5.7995    -3.3327 H       
@<TRIPOS>BOND
   1    1    2 2
   2    1    4 1
   3    1   11 1
   4    2    3 1
   5    2    6 1
   6    3   12 3
   7    4    5 1
   8    5    6 2
   9    5    7 1
  10    6   10 1
  11    7    8 1
  12    7    9 2
  13    8   15 1
  14    8   18 2
  15   10   31 1
  16   10   32 1
  17   11   13 1
  18   11   33 1
  19   13   14 ar
  20   13   22 ar
  21   14   26 1
  22   14   25 ar
  23   15   16 2
  24   15   34 1
  25   16   17 1
  26   17   18 1
  27   17   19 1
  28   18   21 1
  29   19   20 ar
  30   19   27 ar
  31   20   30 ar
  32   20   35 1
  33   21   36 1
  34   21   37 1
  35   21   38 1
  36   22   23 ar
  37   22   39 1
  38   23   24 ar
  39   23   40 1
  40   24   25 ar
  41   24   41 1
  42   25   42 1
  43   27   28 ar
  44   27   43 1
  45   28   29 ar
  46   28   44 1
  47   29   30 ar
  48   29   45 1
  49   30   46 1

#	End of record

