#	Name: ASD03540015
#	Creating user name:	WinNT
#	Creation time:	15. 06. 2019 20:42

#	Modifying user name:	WinNT
#	Modification time:	15. 06. 2019 20:42

#	Program:	/corina/corina34_cracker 3.40 0067  02.08.2006

@<TRIPOS>MOLECULE
ASD03540015
  30   32    0    0    0
SMALL
NO_CHARGES


@<TRIPOS>ATOM
   1 C1            -0.0164     1.3579     0.0095 C.2     
   2 N2             0.0021    -0.0041     0.0020 N.am    
   3 C3             1.2286    -0.6238    -0.0130 C.2     
   4 C4             2.3974     0.1025    -0.0203 C.2     
   5 C5             2.3228     1.5016    -0.0121 C.2     
   6 N6             1.1082     2.0844     0.0027 N.am    
   7 S7             0.9041    -2.3627    -0.0187 S.3     
   8 C8            -1.0720    -0.8445     0.0082 C.2     
   9 C9            -0.8580    -2.1686    -0.0006 C.2     
  10 C10           -1.8685    -3.2317     0.0038 C.2     
  11 O11           -3.0506    -2.9468     0.0163 O.2     
  12 O12           -1.4866    -4.5251    -0.0059 O.3     
  13 O13            3.3377     2.1787    -0.0178 O.2     
  14 O14           -1.0879     1.9320     0.0176 O.2     
  15 C15            1.0159     3.5465     0.0109 C.3     
  16 C16            2.1214     4.7991     3.3995 C.ar    
  17 C17            2.1775     4.3485     2.0942 C.ar    
  18 C18            0.9975     4.0407     1.4344 C.ar    
  19 C19           -0.1999     4.1988     2.1154 C.ar    
  20 C20           -0.1776     4.6547     3.4199 C.ar    
  21 N21            0.9641     4.9374     4.0162 N.ar    
  22 H22            3.3549    -0.3969    -0.0317 H       
  23 H23           -2.0776    -0.4507     0.0196 H       
  24 H24           -2.1886    -5.1901    -0.0025 H       
  25 H25            1.8763     3.9678    -0.5089 H       
  26 H26            0.1000     3.8556    -0.4929 H       
  27 H27            3.0363     5.0367     3.9219 H       
  28 H28            3.1284     4.2376     1.5943 H       
  29 H29           -1.1381     3.9688     1.6325 H       
  30 H30           -1.1060     4.7805     3.9573 H       
@<TRIPOS>BOND
   1    1    2 am
   2    1    6 am
   3    1   14 2
   4    2    3 1
   5    2    8 1
   6    3    4 2
   7    3    7 1
   8    4    5 1
   9    4   22 1
  10    5    6 am
  11    5   13 2
  12    6   15 1
  13    7    9 1
  14    8    9 2
  15    8   23 1
  16    9   10 1
  17   10   11 2
  18   10   12 1
  19   12   24 1
  20   15   18 1
  21   15   25 1
  22   15   26 1
  23   16   17 ar
  24   16   21 ar
  25   16   27 1
  26   17   18 ar
  27   17   28 1
  28   18   19 ar
  29   19   20 ar
  30   19   29 1
  31   20   21 ar
  32   20   30 1

#	End of record

