#	Name: ASD02770037
#	Creating user name:	WinNT
#	Creation time:	15. 06. 2019 20:26

#	Modifying user name:	WinNT
#	Modification time:	15. 06. 2019 20:26

#	Program:	/corina/corina34_cracker 3.40 0067  02.08.2006

@<TRIPOS>MOLECULE
ASD02770037
  44   46    0    0    0
SMALL
NO_CHARGES


@<TRIPOS>ATOM
   1 C1            -0.0169     1.3955     0.0097 C.ar    
   2 C2             0.0021    -0.0041     0.0020 C.ar    
   3 C3             1.2565    -0.6415    -0.0017 C.ar    
   4 C4             2.4212     0.1167     0.0001 C.ar    
   5 C5             2.3303     1.4883    -0.0134 C.ar    
   6 N6             1.1298     2.0645     0.0024 N.ar    
   7 C7             3.7003    -0.6810     0.0411 C.3     
   8 C8             3.4782     2.4577    -0.0722 C.3     
   9 C9             4.7942     1.8709     0.4153 C.3     
  10 S10            5.0969     0.3344    -0.5129 S.3     
  11 C11           -1.3342    -0.5741     0.0012 C.2     
  12 C12           -2.3284     0.3479     0.0141 C.2     
  13 S13           -1.6784     1.9752     0.0216 S.3     
  14 C14           -3.7111     0.0364     0.0174 C.2     
  15 O15           -4.0734    -1.1262     0.0085 O.2     
  16 N16           -4.6250     1.0270     0.0306 N.am    
  17 C17            5.9303     2.8632     0.1591 C.3     
  18 C18            4.7016     1.5629     1.9111 C.3     
  19 C19           -6.0542     0.7051     0.0341 C.3     
  20 C20           -6.8686     2.0002     0.0496 C.3     
  21 C21           -8.3612     1.6640     0.0532 C.3     
  22 O22           -9.1219     2.8736     0.0677 O.3     
  23 N23           -1.5721    -1.9414    -0.0124 N.pl3   
  24 H24            1.3142    -1.7199    -0.0056 H       
  25 H25            3.8823    -1.0183     1.0615 H       
  26 H26            3.6048    -1.5492    -0.6110 H       
  27 H27            3.6039     2.7876    -1.1034 H       
  28 H28            3.2342     3.3250     0.5414 H       
  29 H29           -4.3364     1.9530     0.0378 H       
  30 H30            5.7295     3.7915     0.6939 H       
  31 H31            6.8704     2.4377     0.5101 H       
  32 H32            6.0004     3.0673    -0.9094 H       
  33 H33            3.9003     0.8448     2.0852 H       
  34 H34            5.6469     1.1429     2.2548 H       
  35 H35            4.4917     2.4815     2.4589 H       
  36 H36           -6.2997     0.1321    -0.8601 H       
  37 H37           -6.2917     0.1158     0.9198 H       
  38 H38           -6.6231     2.5731     0.9437 H       
  39 H39           -6.6311     2.5894    -0.8361 H       
  40 H40           -8.6068     1.0910    -0.8409 H       
  41 H41           -8.5988     1.0748     0.9390 H       
  42 H42          -10.0791     2.7363     0.0708 H       
  43 H43           -0.8276    -2.5631    -0.0219 H       
  44 H44           -2.4828    -2.2752    -0.0124 H       
@<TRIPOS>BOND
   1    1    2 ar
   2    1    6 ar
   3    1   13 1
   4    2    3 ar
   5    2   11 1
   6    3    4 ar
   7    3   24 1
   8    4    5 ar
   9    4    7 1
  10    5    6 ar
  11    5    8 1
  12    7   10 1
  13    7   25 1
  14    7   26 1
  15    8    9 1
  16    8   27 1
  17    8   28 1
  18    9   10 1
  19    9   17 1
  20    9   18 1
  21   11   12 2
  22   11   23 1
  23   12   13 1
  24   12   14 1
  25   14   15 2
  26   14   16 am
  27   16   19 1
  28   16   29 1
  29   17   30 1
  30   17   31 1
  31   17   32 1
  32   18   33 1
  33   18   34 1
  34   18   35 1
  35   19   20 1
  36   19   36 1
  37   19   37 1
  38   20   21 1
  39   20   38 1
  40   20   39 1
  41   21   22 1
  42   21   40 1
  43   21   41 1
  44   22   42 1
  45   23   43 1
  46   23   44 1

#	End of record

