#	Name: ASD04590514
#	Creating user name:	WinNT
#	Creation time:	15. 06. 2019 20:51

#	Modifying user name:	WinNT
#	Modification time:	15. 06. 2019 20:51

#	Program:	/corina/corina34_cracker 3.40 0067  02.08.2006

@<TRIPOS>MOLECULE
ASD04590514
  57   61    0    0    0
SMALL
NO_CHARGES


@<TRIPOS>ATOM
   1 C1            -0.0167     1.3832     0.0096 C.ar    
   2 C2             0.0021    -0.0041     0.0020 C.ar    
   3 C3             2.4020     0.0223    -0.0204 C.ar    
   4 C4             2.3769     1.4283    -0.0130 C.ar    
   5 C5             1.1624     2.0986     0.0022 C.ar    
   6 N6             3.7040    -0.3552    -0.0357 N.2     
   7 C7             4.4708     0.7083    -0.0383 C.2     
   8 N8             3.6969     1.8375    -0.0246 N.pl3   
   9 C9             5.9482     0.6906    -0.0531 C.2     
  10 C10            6.7657    -0.4631    -0.0674 C.2     
  11 C11            8.0577    -0.0540    -0.0782 C.2     
  12 N12            8.0646     1.3049    -0.0711 N.pl3   
  13 N13            6.7360     1.7480    -0.0612 N.2     
  14 N14            6.3186    -1.7948    -0.0696 N.am    
  15 C15            7.2106    -2.8051    -0.0839 C.2     
  16 O16            8.3994    -2.5644    -0.0949 O.2     
  17 C17            1.1969    -0.6870    -0.0126 C.ar    
  18 C18            6.7310    -4.2337    -0.0862 C.3     
  19 C19            7.9362    -5.1781    -0.1034 C.3     
  20 C20           -1.2962    -0.7693     0.0104 C.3     
  21 N21           -1.7313    -1.0105    -1.3718 N.3     
  22 C22           -2.8598    -1.9518    -1.4122 C.3     
  23 C23           -0.6168    -1.4976    -2.1976 C.3     
  24 C24           -1.0982    -1.6784    -3.6396 C.3     
  25 O25           -2.2148    -2.5718    -3.6557 O.3     
  26 C26           -3.3187    -2.1280    -2.8622 C.3     
  27 C27            7.4444    -6.6260    -0.0442 C.3     
  28 N28            6.6592    -6.8279     1.1802 N.3     
  29 C29            5.4707    -5.9655     1.1970 C.3     
  30 C30            5.9036    -4.4978     1.1749 C.3     
  31 H31           -0.9614     1.9066     0.0170 H       
  32 H32            1.1403     3.1784     0.0079 H       
  33 H33            4.0155     2.7537    -0.0235 H       
  34 H34            8.9274    -0.6942    -0.0899 H       
  35 H35            8.8529     1.8700    -0.0757 H       
  36 H36            5.3679    -1.9873    -0.0607 H       
  37 H37            1.2037    -1.7669    -0.0178 H       
  38 H38            6.1171    -4.4105    -0.9694 H       
  39 H39            8.5058    -5.0244    -1.0199 H       
  40 H40            8.5709    -4.9737     0.7589 H       
  41 H41           -1.1524    -1.7232     0.5177 H       
  42 H42           -2.0561    -0.1898     0.5346 H       
  43 H43           -2.5450    -2.9149    -1.0105 H       
  44 H44           -3.6829    -1.5591    -0.8152 H       
  45 H45            0.1975    -0.7734    -2.1738 H       
  46 H46           -0.2661    -2.4535    -1.8084 H       
  47 H47           -1.3986    -0.7129    -4.0468 H       
  48 H48           -0.2912    -2.0935    -4.2434 H       
  49 H49           -4.1177    -2.8683    -2.9036 H       
  50 H50           -3.6838    -1.1756    -3.2467 H       
  51 H51            6.8210    -6.8337    -0.9138 H       
  52 H52            8.3006    -7.3006    -0.0418 H       
  53 H53            6.4037    -7.7978     1.2901 H       
  54 H54            4.8566    -6.1763     0.3216 H       
  55 H55            4.8935    -6.1603     2.1009 H       
  56 H56            6.5063    -4.2828     2.0572 H       
  57 H57            5.0210    -3.8581     1.1716 H       
@<TRIPOS>BOND
   1    1    2 ar
   2    1    5 ar
   3    1   31 1
   4    2   17 ar
   5    2   20 1
   6    3    4 ar
   7    3    6 1
   8    3   17 ar
   9    4    5 ar
  10    4    8 1
  11    5   32 1
  12    6    7 2
  13    7    8 1
  14    7    9 1
  15    8   33 1
  16    9   10 1
  17    9   13 2
  18   10   11 2
  19   10   14 1
  20   11   12 1
  21   11   34 1
  22   12   13 1
  23   12   35 1
  24   14   15 am
  25   14   36 1
  26   15   16 2
  27   15   18 1
  28   17   37 1
  29   18   19 1
  30   18   30 1
  31   18   38 1
  32   19   27 1
  33   19   39 1
  34   19   40 1
  35   20   21 1
  36   20   41 1
  37   20   42 1
  38   21   22 1
  39   21   23 1
  40   22   26 1
  41   22   43 1
  42   22   44 1
  43   23   24 1
  44   23   45 1
  45   23   46 1
  46   24   25 1
  47   24   47 1
  48   24   48 1
  49   25   26 1
  50   26   49 1
  51   26   50 1
  52   27   28 1
  53   27   51 1
  54   27   52 1
  55   28   29 1
  56   28   53 1
  57   29   30 1
  58   29   54 1
  59   29   55 1
  60   30   56 1
  61   30   57 1

#	End of record

