#	Name: ASD03092046
#	Creating user name:	WinNT
#	Creation time:	15. 06. 2019 20:31

#	Modifying user name:	WinNT
#	Modification time:	15. 06. 2019 20:31

#	Program:	/corina/corina34_cracker 3.40 0067  02.08.2006

@<TRIPOS>MOLECULE
ASD03092046
  43   45    0    0    0
SMALL
NO_CHARGES


@<TRIPOS>ATOM
   1 N1             0.1399     1.5185     0.0346 N.am    
   2 C2             0.1271     0.1499    -0.0406 C.2     
   3 C3            -1.1776    -0.2427    -0.0882 C.2     
   4 C4            -1.9757     0.9116    -0.0410 C.2     
   5 N5            -1.1896     1.9591     0.0382 N.2     
   6 C6             1.2359     2.3002     0.0993 C.2     
   7 N7             1.1106     3.6414     0.0560 N.am    
   8 N8            -3.3727     0.9396    -0.0674 N.pl3   
   9 C9            -4.0501     2.1519     0.0846 C.ar    
  10 C10           -3.5036     3.3228    -0.4252 C.ar    
  11 C11           -4.1756     4.5214    -0.2737 C.ar    
  12 C12           -5.3915     4.5561     0.3855 C.ar    
  13 C13           -5.9392     3.3903     0.8951 C.ar    
  14 C14           -5.2739     2.1876     0.7408 C.ar    
  15 Cl15          -3.4927     5.9848    -0.9109 Cl      
  16 C16            1.3101    -0.7371    -0.0660 C.ar    
  17 C17            1.3013    -1.9671     0.6015 C.ar    
  18 C18            2.4266    -2.7633     0.5512 C.ar    
  19 N19            3.4994    -2.3789    -0.1137 N.ar    
  20 C20            3.5497    -1.2276    -0.7564 C.ar    
  21 C21            2.4680    -0.3723    -0.7632 C.ar    
  22 C22            2.3019     4.4911     0.1264 C.3     
  23 C23            4.8045    -0.8447    -1.4982 C.3     
  24 O24            2.3371     1.7957     0.1966 O.2     
  25 C25            1.8845     5.9614     0.0575 C.3     
  26 F26           -7.1265     3.4273     1.5388 F       
  27 H27           -1.5338    -1.2603    -0.1514 H       
  28 H28            0.2316     4.0441    -0.0216 H       
  29 H29           -3.8720     0.1172    -0.1912 H       
  30 H30           -2.5542     3.2968    -0.9394 H       
  31 H31           -5.9143     5.4938     0.5033 H       
  32 H32           -5.7012     1.2787     1.1379 H       
  33 H33            0.4268    -2.2879     1.1480 H       
  34 H34            2.4297    -3.7141     1.0634 H       
  35 H35            2.5161     0.5683    -1.2917 H       
  36 H36            2.8256     4.3057     1.0642 H       
  37 H37            2.9621     4.2612    -0.7100 H       
  38 H38            4.7459    -1.2093    -2.5237 H       
  39 H39            4.9065     0.2405    -1.5036 H       
  40 H40            5.6686    -1.2884    -1.0036 H       
  41 H41            2.7709     6.5936     0.1098 H       
  42 H42            1.3608     6.1469    -0.8803 H       
  43 H43            1.2244     6.1913     0.8938 H       
@<TRIPOS>BOND
   1    1    2 1
   2    1    6 am
   3    1    5 1
   4    2    3 2
   5    2   16 1
   6    3    4 1
   7    3   27 1
   8    4    5 2
   9    4    8 1
  10    6    7 am
  11    6   24 2
  12    7   22 1
  13    7   28 1
  14    8    9 1
  15    8   29 1
  16    9   10 ar
  17    9   14 ar
  18   10   11 ar
  19   10   30 1
  20   11   12 ar
  21   11   15 1
  22   12   13 ar
  23   12   31 1
  24   13   14 ar
  25   13   26 1
  26   14   32 1
  27   16   17 ar
  28   16   21 ar
  29   17   18 ar
  30   17   33 1
  31   18   19 ar
  32   18   34 1
  33   19   20 ar
  34   20   21 ar
  35   20   23 1
  36   21   35 1
  37   22   25 1
  38   22   36 1
  39   22   37 1
  40   23   38 1
  41   23   39 1
  42   23   40 1
  43   25   41 1
  44   25   42 1
  45   25   43 1

#	End of record

