#	Name: ASD01670044
#	Creating user name:	WinNT
#	Creation time:	15. 06. 2019 19:22

#	Modifying user name:	WinNT
#	Modification time:	15. 06. 2019 19:22

#	Program:	/corina/corina34_cracker 3.40 0067  02.08.2006

@<TRIPOS>MOLECULE
ASD01670044
  49   52    0    0    0
SMALL
NO_CHARGES


@<TRIPOS>ATOM
   1 C1             2.2995     2.2467     4.1454 C.ar    
   2 C2             2.7487     1.0504     4.6731 C.ar    
   3 C3             3.6455     0.2702     3.9641 C.ar    
   4 C4             4.0946     0.6816     2.7290 C.ar    
   5 C5             3.6442     1.8940     2.1851 C.ar    
   6 C6             2.7414     2.6730     2.9068 C.ar    
   7 C7             2.4069     3.9190     2.1225 C.3     
   8 C8             3.2078     3.8346     0.8159 C.3     
   9 C9             3.9759     2.5380     0.9016 C.2     
  10 C10            4.8155     2.0543    -0.0309 C.2     
  11 C11            5.2839     0.6632     0.0523 C.ar    
  12 C12            4.3733    -0.3727     0.2581 C.ar    
  13 C13            4.8139    -1.6778     0.3375 C.ar    
  14 C14            6.1643    -1.9785     0.2146 C.ar    
  15 C15            7.0905    -0.9625     0.0056 C.ar    
  16 C16            6.6585     0.3668    -0.0817 C.ar    
  17 C17            7.6303     1.4476    -0.3058 C.2     
  18 O18            8.1558     1.9986     0.6417 O.2     
  19 O19            7.9383     1.8273    -1.5621 O.3     
  20 O20            8.4136    -1.2412    -0.1240 O.3     
  21 C21            8.8498    -2.5241     0.3380 C.3     
  22 C22            7.8729    -3.5824    -0.1922 C.3     
  23 O23            6.5664    -3.2763     0.3064 O.3     
  24 C24           10.2574    -2.8111    -0.1886 C.3     
  25 C25           11.2426    -1.8095     0.4172 C.3     
  26 C26           12.6290    -2.0922    -0.1015 C.2     
  27 O27           12.8104    -3.0015    -0.8762 O.2     
  28 O28           13.6623    -1.3338     0.2971 O.3     
  29 O29            2.3235     3.8144    -0.3065 O.3     
  30 H30            1.5966     2.8491     4.7016 H       
  31 H31            2.3990     0.7239     5.6413 H       
  32 H32            3.9941    -0.6633     4.3806 H       
  33 H33            4.7947     0.0706     2.1786 H       
  34 H34            1.3391     3.9495     1.9057 H       
  35 H35            2.7006     4.8054     2.6849 H       
  36 H36            3.8964     4.6761     0.7399 H       
  37 H37            5.1457     2.6877    -0.8409 H       
  38 H38            3.3204    -0.1528     0.3561 H       
  39 H39            4.1016    -2.4737     0.4972 H       
  40 H40            8.5824     2.5421    -1.6592 H       
  41 H41            8.8539    -2.5406     1.4279 H       
  42 H42            7.8646    -3.5618    -1.2819 H       
  43 H43            8.1768    -4.5699     0.1551 H       
  44 H44           10.5504    -3.8232     0.0906 H       
  45 H45           10.2652    -2.7171    -1.2745 H       
  46 H46           10.9496    -0.7974     0.1380 H       
  47 H47           11.2348    -1.9035     1.5031 H       
  48 H48           14.5326    -1.5535    -0.0627 H       
  49 H49            1.7745     4.6062    -0.3890 H       
@<TRIPOS>BOND
   1    1    2 ar
   2    1    6 ar
   3    1   30 1
   4    2    3 ar
   5    2   31 1
   6    3    4 ar
   7    3   32 1
   8    4    5 ar
   9    4   33 1
  10    5    6 ar
  11    5    9 1
  12    6    7 1
  13    7    8 1
  14    7   34 1
  15    7   35 1
  16    8    9 1
  17    8   29 1
  18    8   36 1
  19    9   10 2
  20   10   11 1
  21   10   37 1
  22   11   12 ar
  23   11   16 ar
  24   12   13 ar
  25   12   38 1
  26   13   14 ar
  27   13   39 1
  28   14   15 ar
  29   14   23 1
  30   15   16 ar
  31   15   20 1
  32   16   17 1
  33   17   18 2
  34   17   19 1
  35   19   40 1
  36   20   21 1
  37   21   22 1
  38   21   24 1
  39   21   41 1
  40   22   23 1
  41   22   42 1
  42   22   43 1
  43   24   25 1
  44   24   44 1
  45   24   45 1
  46   25   26 1
  47   25   46 1
  48   25   47 1
  49   26   27 2
  50   26   28 1
  51   28   48 1
  52   29   49 1

#	End of record

