#	Name: ASD01900083
#	Creating user name:	WinNT
#	Creation time:	15. 06. 2019 19:51

#	Modifying user name:	WinNT
#	Modification time:	15. 06. 2019 19:51

#	Program:	/corina/corina34_cracker 3.40 0067  02.08.2006

@<TRIPOS>MOLECULE
ASD01900083
  35   37    0    0    0
SMALL
NO_CHARGES


@<TRIPOS>ATOM
   1 C1            -0.0162     1.3436     0.0094 C.2     
   2 N2             0.0021    -0.0041     0.0020 N.am    
   3 O3             1.0280     1.9655     0.0028 O.2     
   4 C4             1.2297    -0.6908    -0.0134 C.2     
   5 C5             1.3919    -2.0388    -0.0222 C.2     
   6 N6             2.7264    -2.2909    -0.0363 N.am    
   7 N7             3.3967    -1.0610    -0.0361 N.2     
   8 C8             2.5040    -0.1047    -0.0285 C.2     
   9 S9             3.4354    -3.7873    -0.0502 S.o2    
  10 O10            4.7418    -3.6173     0.4824 O.2     
  11 O11            2.4832    -4.6877     0.4991 O.2     
  12 C12            3.6425    -4.2506    -1.7376 C.ar    
  13 C13            2.5338    -4.4596    -2.5379 C.ar    
  14 C14            2.6947    -4.8234    -3.8631 C.ar    
  15 C15            3.9653    -4.9780    -4.3884 C.ar    
  16 C16            5.0766    -4.7679    -3.5856 C.ar    
  17 C17            4.9130    -4.3994    -2.2620 C.ar    
  18 C18           -1.3090     2.0667     0.0195 C.ar    
  19 N19           -2.4461     1.3821     0.0212 N.ar    
  20 C20           -3.6148     1.9854     0.0304 C.ar    
  21 C21           -3.7017     3.3682     0.0388 C.ar    
  22 C22           -2.5384     4.1223     0.0374 C.ar    
  23 C23           -1.3212     3.4599     0.0329 C.ar    
  24 F24            4.1233    -5.3337    -5.6821 F       
  25 F25            6.3180    -4.9188    -4.0968 F       
  26 Cl26           0.9395    -4.2657    -1.8790 Cl      
  27 H27           -0.8313    -0.5005     0.0073 H       
  28 H28            0.6031    -2.7766    -0.0183 H       
  29 H29            2.7127     0.9550    -0.0264 H       
  30 H30            1.8286    -4.9871    -4.4872 H       
  31 H31            5.7779    -4.2353    -1.6364 H       
  32 H32           -4.5190     1.3949     0.0311 H       
  33 H33           -4.6663     3.8538     0.0460 H       
  34 H34           -2.5798     5.2015     0.0435 H       
  35 H35           -0.3952     4.0157     0.0317 H       
@<TRIPOS>BOND
   1    1    2 am
   2    1    3 2
   3    1   18 1
   4    2    4 1
   5    2   27 1
   6    4    5 2
   7    4    8 1
   8    5    6 1
   9    5   28 1
  10    6    7 1
  11    6    9 am
  12    7    8 2
  13    8   29 1
  14    9   10 2
  15    9   11 2
  16    9   12 1
  17   12   13 ar
  18   12   17 ar
  19   13   14 ar
  20   13   26 1
  21   14   15 ar
  22   14   30 1
  23   15   16 ar
  24   15   24 1
  25   16   17 ar
  26   16   25 1
  27   17   31 1
  28   18   19 ar
  29   18   23 ar
  30   19   20 ar
  31   20   21 ar
  32   20   32 1
  33   21   22 ar
  34   21   33 1
  35   22   23 ar
  36   22   34 1
  37   23   35 1

#	End of record

