#	Name: ASD01840183
#	Creating user name:	WinNT
#	Creation time:	15. 06. 2019 19:37

#	Modifying user name:	WinNT
#	Modification time:	15. 06. 2019 19:37

#	Program:	/corina/corina34_cracker 3.40 0067  02.08.2006

@<TRIPOS>MOLECULE
ASD01840183
  44   47    0    0    0
SMALL
NO_CHARGES


@<TRIPOS>ATOM
   1 C1            -1.6298     1.8045    -0.7044 C.3     
   2 C2            -1.3214     0.3066    -0.5288 C.3     
   3 N3            -1.0016    -0.3805    -1.7825 N.am    
   4 C4            -1.2021    -1.7087    -1.8932 C.2     
   5 C5            -0.8830    -2.3945    -3.1445 C.2     
   6 O6            -1.6490    -2.3374    -0.9513 O.2     
   7 C7            -1.0485    -3.7239    -3.3546 C.2     
   8 C8            -0.6588    -4.1657    -4.6809 C.ar    
   9 C9            -0.1873    -3.1123    -5.4757 C.ar    
  10 S10           -0.2431    -1.6050    -4.5727 S.3     
  11 C11           -0.6877    -5.4557    -5.2582 C.ar    
  12 C12           -0.2528    -5.5933    -6.5580 C.ar    
  13 N13            0.1758    -4.5395    -7.2314 N.ar    
  14 N14            0.2083    -3.3633    -6.7259 N.ar    
  15 C15           -0.2653    -6.9498    -7.2144 C.3     
  16 C16           -1.1793    -6.6454    -4.4746 C.3     
  17 N17           -1.5467    -4.5858    -2.3869 N.pl3   
  18 C18           -0.0815     0.7559     0.2652 C.3     
  19 N19           -0.1833     2.0266    -0.4859 N.3     
  20 C20            0.0341     3.1237     0.3535 C.ar    
  21 C21            1.2044     3.2088     1.1008 C.ar    
  22 C22           -0.9145     4.1332     0.4386 C.ar    
  23 C23           -0.6967     5.2164     1.2686 C.ar    
  24 C24            0.4645     5.2963     2.0143 C.ar    
  25 C25            1.4155     4.2953     1.9290 C.ar    
  26 F26            2.1329     2.2309     1.0178 F       
  27 H27           -1.9682     2.0687    -1.7063 H       
  28 H28           -2.2612     2.2180     0.0819 H       
  29 H29           -2.0594    -0.2258     0.0712 H       
  30 H30           -0.6456     0.1204    -2.5330 H       
  31 H31           -1.2234    -7.1047    -7.7105 H       
  32 H32            0.5376    -7.0051    -7.9496 H       
  33 H33           -0.1189    -7.7208    -6.4580 H       
  34 H34           -2.2663    -6.6973    -4.5366 H       
  35 H35           -0.7478    -7.5566    -4.8886 H       
  36 H36           -0.8794    -6.5426    -3.4317 H       
  37 H37           -1.5306    -4.3268    -1.4522 H       
  38 H38           -1.9108    -5.4469    -2.6454 H       
  39 H39           -0.2602     0.8627     1.3351 H       
  40 H40            0.8170     0.1822     0.0380 H       
  41 H41           -1.8221     4.0724    -0.1436 H       
  42 H42           -1.4348     6.0021     1.3346 H       
  43 H43            0.6317     6.1444     2.6617 H       
  44 H44            2.3235     4.3628     2.5098 H       
@<TRIPOS>BOND
   1    1    2 1
   2    1   19 1
   3    1   27 1
   4    1   28 1
   5    2    3 1
   6    2   18 1
   7    2   29 1
   8    3    4 am
   9    3   30 1
  10    4    5 1
  11    4    6 2
  12    5    7 2
  13    5   10 1
  14    7    8 1
  15    7   17 1
  16    8    9 ar
  17    8   11 ar
  18    9   10 1
  19    9   14 ar
  20   11   12 ar
  21   11   16 1
  22   12   13 ar
  23   12   15 1
  24   13   14 ar
  25   15   31 1
  26   15   32 1
  27   15   33 1
  28   16   34 1
  29   16   35 1
  30   16   36 1
  31   17   37 1
  32   17   38 1
  33   18   19 1
  34   18   39 1
  35   18   40 1
  36   19   20 1
  37   20   22 ar
  38   20   21 ar
  39   21   25 ar
  40   21   26 1
  41   22   23 ar
  42   22   41 1
  43   23   24 ar
  44   23   42 1
  45   24   25 ar
  46   24   43 1
  47   25   44 1

#	End of record

