#	Name: ASD01410658
#	Creating user name:	WinNT
#	Creation time:	15. 06. 2019 19:18

#	Modifying user name:	WinNT
#	Modification time:	15. 06. 2019 19:18

#	Program:	/corina/corina34_cracker 3.40 0067  02.08.2006

@<TRIPOS>MOLECULE
ASD01410658
  80   84    0    0    0
SMALL
NO_CHARGES


@<TRIPOS>ATOM
   1 C1             0.2108     2.6839    -0.0628 C.ar    
   2 C2             0.1335     1.7176     0.9304 C.ar    
   3 C3             1.2467     0.9519     1.2163 C.ar    
   4 N4             2.3763     1.1290     0.5583 N.ar    
   5 C5             2.4891     2.0397    -0.3947 C.ar    
   6 C6             1.4100     2.8454    -0.7349 C.ar    
   7 O7             3.6700     2.1881    -1.0459 O.3     
   8 C8             4.7308     1.4520    -0.6199 C.ar    
   9 C9             5.8203     2.0832    -0.0318 C.ar    
  10 C10            6.9023     1.3455     0.4042 C.ar    
  11 C11            6.9094    -0.0346     0.2575 C.ar    
  12 C12            5.8124    -0.6780    -0.3355 C.ar    
  13 C13            4.7195     0.0770    -0.7680 C.ar    
  14 N14            8.0030    -0.7790     0.6972 N.am    
  15 C15            8.6974    -1.5362    -0.1751 C.2     
  16 C16            8.3974    -0.7382     2.1075 C.3     
  17 O17            9.5702    -2.2768     0.2257 O.2     
  18 C18            8.3892    -1.4628    -1.6484 C.3     
  19 C19            9.1515    -2.5663    -2.3845 C.3     
  20 C20            8.8386    -2.4917    -3.8803 C.3     
  21 C21            9.2664    -1.1269    -4.4234 C.3     
  22 C22            8.5041    -0.0233    -3.6873 C.3     
  23 C23            8.8170    -0.0979    -2.1915 C.3     
  24 C24            8.9536    -1.0523    -5.9192 C.3     
  25 C25            7.4622     0.2011     2.8717 C.3     
  26 C26            8.3062    -2.1444     2.7035 C.3     
  27 C27           -1.1514     1.5064     1.6891 C.3     
  28 C28            6.8679    -2.6539     2.5907 C.3     
  29 C29           -1.9917     0.4776     0.9775 C.2     
  30 C30           -1.9641    -0.8419     1.1876 C.2     
  31 C31            5.9327    -1.7145     3.3548 C.3     
  32 C32            6.0239    -0.3083     2.7589 C.3     
  33 O33            4.5894    -2.1903     3.2494 O.3     
  34 C34            3.7696    -1.8708     4.3754 C.3     
  35 S35           -3.1896     0.8027    -0.2731 S.3     
  36 C36           -3.5287    -0.8687    -0.3946 C.2     
  37 N37           -2.7978    -1.5324     0.4360 N.2     
  38 C38            1.5431     3.8814    -1.8212 C.3     
  39 F39            0.3272     4.5565    -1.9732 F       
  40 F40            2.5437     4.7954    -1.4738 F       
  41 F41            1.8819     3.2541    -3.0249 F       
  42 C42            5.8109    -2.1432    -0.4962 C.2     
  43 O43            6.8138    -2.7827    -0.2475 O.2     
  44 O44            4.6974    -2.7735    -0.9190 O.3     
  45 H45           -0.6465     3.2929    -0.3088 H       
  46 H46            1.1919     0.1989     1.9885 H       
  47 H47            5.8205     3.1570     0.0844 H       
  48 H48            7.7453     1.8433     0.8602 H       
  49 H49            3.8715    -0.4111    -1.2253 H       
  50 H50            9.4220    -0.3753     2.1879 H       
  51 H51            7.3184    -1.5958    -1.8027 H       
  52 H52           10.2223    -2.4333    -2.2303 H       
  53 H53            8.8467    -3.5387    -1.9976 H       
  54 H54            9.3817    -3.2779    -4.4048 H       
  55 H55            7.7678    -2.6247    -4.0346 H       
  56 H56           10.3372    -0.9938    -4.2692 H       
  57 H57            8.8090     0.9491    -4.0742 H       
  58 H58            7.4334    -0.1563    -3.8416 H       
  59 H59            8.2740     0.6883    -1.6670 H       
  60 H60            9.8878     0.0351    -2.0372 H       
  61 H61            7.8828    -1.1853    -6.0735 H       
  62 H62            9.2584    -0.0799    -6.3062 H       
  63 H63            9.4966    -1.8385    -6.4437 H       
  64 H64            7.7556     0.2315     3.9210 H       
  65 H65            7.5271     1.2030     2.4471 H       
  66 H66            8.9724    -2.8137     2.1591 H       
  67 H67            8.5996    -2.1141     3.7528 H       
  68 H68           -0.9252     1.1571     2.6966 H       
  69 H69           -1.6990     2.4472     1.7452 H       
  70 H70            6.5745    -2.6842     1.5413 H       
  71 H71            6.8030    -3.6557     3.0152 H       
  72 H72           -1.3118    -1.3044     1.9135 H       
  73 H73            6.2262    -1.6842     4.4041 H       
  74 H74            5.3577     0.3609     3.3033 H       
  75 H75            5.7305    -0.3386     1.7095 H       
  76 H76            4.1982    -2.3139     5.2743 H       
  77 H77            3.7191    -0.7883     4.4926 H       
  78 H78            2.7662    -2.2664     4.2182 H       
  79 H79           -4.2529    -1.3053    -1.0665 H       
  80 H80            4.7447    -3.7351    -1.0091 H       
@<TRIPOS>BOND
   1    1    2 ar
   2    1    6 ar
   3    1   45 1
   4    2    3 ar
   5    2   27 1
   6    3    4 ar
   7    3   46 1
   8    4    5 ar
   9    5    6 ar
  10    5    7 1
  11    6   38 1
  12    7    8 1
  13    8    9 ar
  14    8   13 ar
  15    9   10 ar
  16    9   47 1
  17   10   11 ar
  18   10   48 1
  19   11   12 ar
  20   11   14 1
  21   12   13 ar
  22   12   42 1
  23   13   49 1
  24   14   15 am
  25   14   16 1
  26   15   17 2
  27   15   18 1
  28   16   25 1
  29   16   26 1
  30   16   50 1
  31   18   19 1
  32   18   23 1
  33   18   51 1
  34   19   20 1
  35   19   52 1
  36   19   53 1
  37   20   21 1
  38   20   54 1
  39   20   55 1
  40   21   22 1
  41   21   24 1
  42   21   56 1
  43   22   23 1
  44   22   57 1
  45   22   58 1
  46   23   59 1
  47   23   60 1
  48   24   61 1
  49   24   62 1
  50   24   63 1
  51   25   32 1
  52   25   64 1
  53   25   65 1
  54   26   28 1
  55   26   66 1
  56   26   67 1
  57   27   29 1
  58   27   68 1
  59   27   69 1
  60   28   31 1
  61   28   70 1
  62   28   71 1
  63   29   35 1
  64   29   30 2
  65   30   37 1
  66   30   72 1
  67   31   33 1
  68   31   32 1
  69   31   73 1
  70   32   74 1
  71   32   75 1
  72   33   34 1
  73   34   76 1
  74   34   77 1
  75   34   78 1
  76   35   36 1
  77   36   37 2
  78   36   79 1
  79   38   39 1
  80   38   40 1
  81   38   41 1
  82   42   43 2
  83   42   44 1
  84   44   80 1

#	End of record

