#	Name: ASD03240664
#	Creating user name:	WinNT
#	Creation time:	15. 06. 2019 20:35

#	Modifying user name:	WinNT
#	Modification time:	15. 06. 2019 20:35

#	Program:	/corina/corina34_cracker 3.40 0067  02.08.2006

@<TRIPOS>MOLECULE
ASD03240664
  60   66    0    0    0
SMALL
NO_CHARGES


@<TRIPOS>ATOM
   1 C1            -0.0166     1.3755     0.0096 C.ar    
   2 C2             0.0021    -0.0041     0.0020 C.ar    
   3 N3             1.1422    -0.6683    -0.0058 N.ar    
   4 C4             2.3145    -0.0481    -0.0058 C.ar    
   5 C5             2.3702     1.3442    -0.0124 C.ar    
   6 C6             1.1860     2.0698     0.0018 C.ar    
   7 N7             3.4820    -0.8058     0.0220 N.pl3   
   8 C8             4.3592    -0.7194     1.0997 C.ar    
   9 C9             4.9952     0.4890     1.4036 C.ar    
  10 C10            4.7637     1.6835     0.5620 C.2     
  11 N11            3.5939     2.0276    -0.0512 N.pl3   
  12 C12            4.6051    -1.8391     1.8830 C.ar    
  13 C13            5.4649    -1.7538     2.9614 C.ar    
  14 C14            6.0859    -0.5557     3.2701 C.ar    
  15 C15            5.8562     0.5653     2.4982 C.ar    
  16 N16            5.6751     2.5941     0.2849 N.2     
  17 C17            5.1448     3.5398    -0.5058 C.2     
  18 C18            3.8224     3.2037    -0.7368 C.2     
  19 C19            2.8495     3.9538    -1.5545 C.ar    
  20 C20            2.7505     5.3418    -1.4300 C.ar    
  21 C21            2.0271     3.2799    -2.4608 C.ar    
  22 C22            1.1201     3.9875    -3.2217 C.ar    
  23 C23            1.0235     5.3615    -3.0890 C.ar    
  24 C24            1.8389     6.0363    -2.1974 C.ar    
  25 C25            5.8486     4.7306    -1.0358 C.ar    
  26 C26            6.8180     5.3718    -0.2647 C.ar    
  27 C27            7.4705     6.4803    -0.7641 C.ar    
  28 C28            7.1646     6.9562    -2.0266 C.ar    
  29 C29            6.2040     6.3245    -2.7961 C.ar    
  30 C30            5.5487     5.2117    -2.3101 C.ar    
  31 C31            7.8803     8.1680    -2.5655 C.3     
  32 N32            9.1523     8.4312    -1.8795 N.3     
  33 C33            7.9923     8.1858    -4.0991 C.3     
  34 C34            7.6989     9.6935    -4.0245 C.3     
  35 C35            6.9808     9.4087    -2.6928 C.3     
  36 H36           -0.9556     1.9091     0.0170 H       
  37 H37           -0.9306    -0.5486     0.0028 H       
  38 H38            1.2002     3.1497     0.0064 H       
  39 H39            3.6863    -1.4002    -0.7168 H       
  40 H40            4.1238    -2.7773     1.6495 H       
  41 H41            5.6534    -2.6275     3.5676 H       
  42 H42            6.7523    -0.4979     4.1181 H       
  43 H43            6.3420     1.4988     2.7410 H       
  44 H44            3.3860     5.8696    -0.7344 H       
  45 H45            2.1017     2.2076    -2.5656 H       
  46 H46            0.4839     3.4679    -3.9229 H       
  47 H47            0.3114     5.9105    -3.6874 H       
  48 H48            1.7581     7.1088    -2.0991 H       
  49 H49            7.0572     5.0016     0.7212 H       
  50 H50            8.2213     6.9776    -0.1680 H       
  51 H51            5.9692     6.7009    -3.7808 H       
  52 H52            4.7990     4.7195    -2.9117 H       
  53 H53            9.0291     8.4349    -0.8781 H       
  54 H54            9.8566     7.7630    -2.1547 H       
  55 H55            8.9917     7.9531    -4.4667 H       
  56 H56            7.2119     7.6134    -4.6006 H       
  57 H57            8.5929    10.3073    -3.9143 H       
  58 H58            7.0349    10.0487    -4.8125 H       
  59 H59            5.9235     9.1706    -2.8091 H       
  60 H60            7.1641    10.1632    -1.9278 H       
@<TRIPOS>BOND
   1    1    2 ar
   2    1    6 ar
   3    1   36 1
   4    2    3 ar
   5    2   37 1
   6    3    4 ar
   7    4    5 ar
   8    4    7 1
   9    5    6 ar
  10    5   11 1
  11    6   38 1
  12    7    8 1
  13    7   39 1
  14    8    9 ar
  15    8   12 ar
  16    9   10 1
  17    9   15 ar
  18   10   11 1
  19   10   16 2
  20   11   18 1
  21   12   13 ar
  22   12   40 1
  23   13   14 ar
  24   13   41 1
  25   14   15 ar
  26   14   42 1
  27   15   43 1
  28   16   17 1
  29   17   18 2
  30   17   25 1
  31   18   19 1
  32   19   20 ar
  33   19   21 ar
  34   20   24 ar
  35   20   44 1
  36   21   22 ar
  37   21   45 1
  38   22   23 ar
  39   22   46 1
  40   23   24 ar
  41   23   47 1
  42   24   48 1
  43   25   26 ar
  44   25   30 ar
  45   26   27 ar
  46   26   49 1
  47   27   28 ar
  48   27   50 1
  49   28   29 ar
  50   28   31 1
  51   29   30 ar
  52   29   51 1
  53   30   52 1
  54   31   32 1
  55   31   33 1
  56   31   35 1
  57   32   53 1
  58   32   54 1
  59   33   34 1
  60   33   55 1
  61   33   56 1
  62   34   35 1
  63   34   57 1
  64   34   58 1
  65   35   59 1
  66   35   60 1

#	End of record

