#	Name: ASD00241030
#	Creating user name:	WinNT
#	Creation time:	15. 06. 2019 18:33

#	Modifying user name:	WinNT
#	Modification time:	15. 06. 2019 18:33

#	Program:	/corina/corina34_cracker 3.40 0067  02.08.2006

@<TRIPOS>MOLECULE
ASD00241030
  74   77    0    0    0
SMALL
NO_CHARGES


@<TRIPOS>ATOM
   1 N1             2.2456     3.4740    -0.7981 N.ar    
   2 C2             1.8144     2.2276    -0.7388 C.ar    
   3 N3             2.6322     1.2009    -0.6365 N.ar    
   4 C4             3.9467     1.3851    -0.5883 C.ar    
   5 C5             4.4557     2.6946    -0.6481 C.ar    
   6 C6             3.5432     3.7562    -0.7569 C.ar    
   7 N7             5.0381     0.5598    -0.4871 N.pl3   
   8 C8             6.1490     1.3495    -0.4869 C.2     
   9 N9             5.8054     2.6012    -0.5814 N.2     
  10 C10            5.0138    -0.9022    -0.3958 C.3     
  11 O11            6.2209    -1.3869     0.2316 O.3     
  12 C12            6.3276    -2.7710    -0.1670 C.3     
  13 C13            5.9077    -2.7870    -1.6536 C.3     
  14 C14            5.0235    -1.5293    -1.8076 C.3     
  15 C15            7.7696    -3.2593    -0.0156 C.3     
  16 F16            3.7272    -1.8858    -2.1945 F       
  17 O17            5.1567    -3.9663    -1.9490 O.3     
  18 C18            7.5796    -4.2387     2.1906 C.3     
  19 C19            7.8115    -3.9681     3.6548 C.2     
  20 C20            6.8013    -3.9677     4.4889 C.2     
  21 C21            5.4380    -4.4078     4.0213 C.3     
  22 N22            8.1753    -3.1587     1.3927 N.3     
  23 C23            9.6388    -3.1558     1.5200 C.3     
  24 N24            4.9232    -5.4423     4.9219 N.am    
  25 O25            3.2384    -6.9391     5.5259 O.3     
  26 C26            1.9261    -7.4823     5.2242 C.3     
  27 C27            1.9456    -8.1202     3.8337 C.3     
  28 C28            1.5606    -8.5414     6.2661 C.3     
  29 C29            0.8893    -6.3576     5.2548 C.3     
  30 C30            3.7115    -5.9883     4.6983 C.2     
  31 O31            3.0459    -5.6225     3.7498 O.2     
  32 N32            3.9865     5.0699    -0.8204 N.am    
  33 C33            3.0970     6.0770    -0.9247 C.2     
  34 C34            4.4535    10.0971    -1.1185 C.ar    
  35 C35            3.0977     9.8249    -1.1629 C.ar    
  36 C36            2.6503     8.5215    -1.1003 C.ar    
  37 C37            3.5690     7.4759    -0.9923 C.ar    
  38 C38            4.9356     7.7576    -0.9479 C.ar    
  39 C39            5.3695     9.0656    -1.0110 C.ar    
  40 O40            1.9065     5.8348    -0.9631 O.2     
  41 H41            0.7508     2.0433    -0.7752 H       
  42 H42            7.1649     0.9894    -0.4181 H       
  43 H43            4.1374    -1.2323     0.1618 H       
  44 H44            5.6526    -3.3894     0.4246 H       
  45 H45            6.7837    -2.7193    -2.2986 H       
  46 H46            5.4624    -0.8399    -2.5288 H       
  47 H47            7.8376    -4.2976    -0.3400 H       
  48 H48            8.4280    -2.6434    -0.6282 H       
  49 H49            4.8673    -4.0280    -2.8697 H       
  50 H50            8.0411    -5.1881     1.9190 H       
  51 H51            6.5083    -4.2864     1.9951 H       
  52 H52            8.8105    -3.7745     4.0166 H       
  53 H53            6.9456    -3.6521     5.5116 H       
  54 H54            4.7601    -3.5542     4.0234 H       
  55 H55            5.5127    -4.8099     3.0110 H       
  56 H56           10.0564    -2.3667     0.8947 H       
  57 H57            9.9126    -2.9784     2.5601 H       
  58 H58           10.0333    -4.1201     1.1998 H       
  59 H59            5.4546    -5.7344     5.6790 H       
  60 H60            2.6843    -8.9215     3.8119 H       
  61 H61            0.9604    -8.5280     3.6072 H       
  62 H62            2.2059    -7.3657     3.0914 H       
  63 H63            1.5468    -8.0869     7.2568 H       
  64 H64            0.5755    -8.9492     6.0396 H       
  65 H65            2.2993    -9.3426     6.2443 H       
  66 H66            1.1496    -5.6031     4.5126 H       
  67 H67           -0.0959    -6.7654     5.0283 H       
  68 H68            0.8754    -5.9031     6.2455 H       
  69 H69            4.9366     5.2632    -0.7897 H       
  70 H70            4.7987    11.1191    -1.1724 H       
  71 H71            2.3880    10.6347    -1.2465 H       
  72 H72            1.5917     8.3103    -1.1348 H       
  73 H73            5.6515     6.9534    -0.8640 H       
  74 H74            6.4264     9.2850    -0.9768 H       
@<TRIPOS>BOND
   1    1    2 ar
   2    1    6 ar
   3    2    3 ar
   4    2   41 1
   5    3    4 ar
   6    4    5 ar
   7    4    7 1
   8    5    6 ar
   9    5    9 1
  10    6   32 1
  11    7    8 1
  12    7   10 1
  13    8    9 2
  14    8   42 1
  15   10   11 1
  16   10   14 1
  17   10   43 1
  18   11   12 1
  19   12   13 1
  20   12   15 1
  21   12   44 1
  22   13   14 1
  23   13   17 1
  24   13   45 1
  25   14   16 1
  26   14   46 1
  27   15   22 1
  28   15   47 1
  29   15   48 1
  30   17   49 1
  31   18   19 1
  32   18   22 1
  33   18   50 1
  34   18   51 1
  35   19   20 2
  36   19   52 1
  37   20   21 1
  38   20   53 1
  39   21   24 1
  40   21   54 1
  41   21   55 1
  42   22   23 1
  43   23   56 1
  44   23   57 1
  45   23   58 1
  46   24   30 am
  47   24   59 1
  48   25   26 1
  49   25   30 1
  50   26   27 1
  51   26   28 1
  52   26   29 1
  53   27   60 1
  54   27   61 1
  55   27   62 1
  56   28   63 1
  57   28   64 1
  58   28   65 1
  59   29   66 1
  60   29   67 1
  61   29   68 1
  62   30   31 2
  63   32   33 am
  64   32   69 1
  65   33   40 2
  66   33   37 1
  67   34   35 ar
  68   34   39 ar
  69   34   70 1
  70   35   36 ar
  71   35   71 1
  72   36   37 ar
  73   36   72 1
  74   37   38 ar
  75   38   39 ar
  76   38   73 1
  77   39   74 1

#	End of record

