#	Name: ASD01911331
#	Creating user name:	WinNT
#	Creation time:	15. 06. 2019 19:57

#	Modifying user name:	WinNT
#	Modification time:	15. 06. 2019 19:57

#	Program:	/corina/corina34_cracker 3.40 0067  02.08.2006

@<TRIPOS>MOLECULE
ASD01911331
  37   39    0    0    0
SMALL
NO_CHARGES


@<TRIPOS>ATOM
   1 C1            -0.0190     1.3859    -0.0126 C.ar    
   2 C2             0.0018    -0.0017    -0.0018 C.ar    
   3 C3            -1.2090    -0.6803     0.0167 C.ar    
   4 C4            -2.3945     0.0525     0.0268 C.ar    
   5 N5            -2.3690     1.3748     0.0144 N.ar    
   6 C6            -1.2323     2.0452     0.0006 C.ar    
   7 O7            -1.2236    -2.0378     0.0201 O.3     
   8 C8            -2.4150    -2.6886     0.4695 C.3     
   9 C9            -3.6195    -2.0636    -0.2484 C.3     
  10 N10           -3.6221    -0.6226     0.0545 N.am    
  11 C11            1.2703     2.1659    -0.0322 C.3     
  12 O12            1.6638     2.4017    -1.3855 O.3     
  13 C13            2.8146     3.0976    -1.5811 C.ar    
  14 C14            3.2560     3.3625    -2.8694 C.ar    
  15 C15            4.4261     4.0701    -3.0655 C.ar    
  16 C16            5.1573     4.5141    -1.9793 C.ar    
  17 C17            4.7197     4.2510    -0.6943 C.ar    
  18 C18            3.5470     3.5492    -0.4928 C.ar    
  19 C19           -4.7667     0.0253     0.3489 C.2     
  20 C20           -6.0867    -0.6952     0.2516 C.3     
  21 O21           -4.7343     1.1880     0.6922 O.2     
  22 H22            0.9377    -0.5407    -0.0080 H       
  23 H23           -1.2513     3.1250    -0.0091 H       
  24 H24           -2.3612    -3.7518     0.2352 H       
  25 H25           -2.5210    -2.5543     1.5460 H       
  26 H26           -3.5281    -2.2150    -1.3240 H       
  27 H27           -4.5419    -2.5187     0.1125 H       
  28 H28            1.1258     3.1195     0.4757 H       
  29 H29            2.0471     1.5965     0.4781 H       
  30 H30            2.6854     3.0156    -3.7182 H       
  31 H31            4.7703     4.2763    -4.0682 H       
  32 H32            6.0718     5.0671    -2.1347 H       
  33 H33            5.2930     4.5982     0.1526 H       
  34 H34            3.2056     3.3439     0.5110 H       
  35 H35           -5.9273    -1.6917    -0.1604 H       
  36 H36           -6.5290    -0.7789     1.2442 H       
  37 H37           -6.7586    -0.1360    -0.3996 H       
@<TRIPOS>BOND
   1    1    2 ar
   2    1   11 1
   3    1    6 ar
   4    2    3 ar
   5    2   22 1
   6    3    4 ar
   7    3    7 1
   8    4    5 ar
   9    4   10 1
  10    5    6 ar
  11    6   23 1
  12    7    8 1
  13    8    9 1
  14    8   24 1
  15    8   25 1
  16    9   10 1
  17    9   26 1
  18    9   27 1
  19   10   19 am
  20   11   12 1
  21   11   28 1
  22   11   29 1
  23   12   13 1
  24   13   14 ar
  25   13   18 ar
  26   14   15 ar
  27   14   30 1
  28   15   16 ar
  29   15   31 1
  30   16   17 ar
  31   16   32 1
  32   17   18 ar
  33   17   33 1
  34   18   34 1
  35   19   20 1
  36   19   21 2
  37   20   35 1
  38   20   36 1
  39   20   37 1

#	End of record

