#	Name: ASD01885410
#	Creating user name:	WinNT
#	Creation time:	15. 06. 2019 19:49

#	Modifying user name:	WinNT
#	Modification time:	15. 06. 2019 19:49

#	Program:	/corina/corina34_cracker 3.40 0067  02.08.2006

@<TRIPOS>MOLECULE
ASD01885410
  38   41    0    0    0
SMALL
NO_CHARGES


@<TRIPOS>ATOM
   1 C1            -0.0169     1.3915     0.0097 C.ar    
   2 C2             0.0021    -0.0041     0.0020 C.ar    
   3 N3            -1.1140    -0.7739     0.0203 N.2     
   4 C4            -2.1905    -0.5694    -0.6465 C.2     
   5 C5            -2.3523     0.6310    -1.5419 C.3     
   6 C6            -2.2801     1.8694    -0.6847 C.2     
   7 N7            -1.1829     2.1455     0.0191 N.am    
   8 C8             1.1871     2.0927     0.0020 C.ar    
   9 C9             2.4009     1.4167    -0.0184 C.ar    
  10 C10            2.4182     0.0207    -0.0317 C.ar    
  11 C11            1.2375    -0.6781    -0.0217 C.ar    
  12 C12           -3.2981    -1.5348    -0.5340 C.ar    
  13 C13           -3.1935    -2.6686     0.2874 C.ar    
  14 C14           -4.2761    -3.5285     0.3406 C.ar    
  15 N15           -5.3599    -3.2698    -0.3667 N.ar    
  16 N16           -5.4636    -2.2365    -1.1194 N.ar    
  17 C17           -4.4953    -1.3506    -1.2386 C.ar    
  18 O18           -3.2298     2.6222    -0.6368 O.2     
  19 C19            3.6745     2.1759    -0.0264 C.ar    
  20 C20            4.8928     1.4986    -0.0468 C.ar    
  21 C21            6.0749     2.2105    -0.0546 C.ar    
  22 C22            6.0526     3.5937    -0.0423 C.ar    
  23 C23            4.8467     4.2712    -0.0216 C.ar    
  24 C24            3.6582     3.5699    -0.0194 C.ar    
  25 H25           -1.5521     0.6485    -2.2819 H       
  26 H26           -3.3183     0.5874    -2.0447 H       
  27 H27           -1.2003     2.9336     0.5844 H       
  28 H28            1.1768     3.1726     0.0115 H       
  29 H29            3.3596    -0.5084    -0.0501 H       
  30 H30            1.2563    -1.7579    -0.0319 H       
  31 H31           -2.2977    -2.8632     0.8585 H       
  32 H32           -4.2341    -4.4118     0.9607 H       
  33 H33           -4.6200    -0.4927    -1.8827 H       
  34 H34            4.9114     0.4188    -0.0560 H       
  35 H35            7.0193     1.6869    -0.0701 H       
  36 H36            6.9802     4.1467    -0.0485 H       
  37 H37            4.8353     5.3511    -0.0117 H       
  38 H38            2.7173     4.0998    -0.0036 H       
@<TRIPOS>BOND
   1    1    2 ar
   2    1    8 ar
   3    1    7 1
   4    2    3 1
   5    2   11 ar
   6    3    4 2
   7    4    5 1
   8    4   12 1
   9    5    6 1
  10    5   25 1
  11    5   26 1
  12    6    7 am
  13    6   18 2
  14    7   27 1
  15    8    9 ar
  16    8   28 1
  17    9   10 ar
  18    9   19 1
  19   10   11 ar
  20   10   29 1
  21   11   30 1
  22   12   13 ar
  23   12   17 ar
  24   13   14 ar
  25   13   31 1
  26   14   15 ar
  27   14   32 1
  28   15   16 ar
  29   16   17 ar
  30   17   33 1
  31   19   20 ar
  32   19   24 ar
  33   20   21 ar
  34   20   34 1
  35   21   22 ar
  36   21   35 1
  37   22   23 ar
  38   22   36 1
  39   23   24 ar
  40   23   37 1
  41   24   38 1

#	End of record

