#	Name: ASD01884769
#	Creating user name:	WinNT
#	Creation time:	15. 06. 2019 19:48

#	Modifying user name:	WinNT
#	Modification time:	15. 06. 2019 19:48

#	Program:	/corina/corina34_cracker 3.40 0067  02.08.2006

@<TRIPOS>MOLECULE
ASD01884769
  30   31    0    0    0
SMALL
NO_CHARGES


@<TRIPOS>ATOM
   1 C1            -0.0163     1.3518     0.0095 C.2     
   2 C2             0.0021    -0.0041     0.0020 C.2     
   3 C3             1.2976    -0.6859    -0.0140 C.ar    
   4 C4             2.4747     0.0858    -0.0211 C.ar    
   5 N5             2.3876     1.4619    -0.0119 N.am    
   6 C6             1.1931     2.0791     0.0018 C.2     
   7 C7             1.3799    -2.0823    -0.0218 C.ar    
   8 C8             2.6049    -2.6887    -0.0363 C.ar    
   9 C9             3.7688    -1.9297    -0.0429 C.ar    
  10 C10            3.7104    -0.5530    -0.0363 C.ar    
  11 H11           -0.9187    -0.5685     0.0081 H       
  12 O12            1.1539     3.2973     0.0097 O.2     
  13 C13            3.6141     2.2630    -0.0193 C.3     
  14 C14            4.0267     2.5506    -1.4643 C.3     
  15 C15            2.9662     3.4280    -2.1324 C.3     
  16 C16            5.3720     3.2792    -1.4751 C.3     
  17 Cl17           2.7074    -4.4216    -0.0460 Cl      
  18 H18           -0.9600     1.8770     0.0168 H       
  19 H19            0.4796    -2.6788    -0.0160 H       
  20 H20            4.7290    -2.4239    -0.0537 H       
  21 H21            4.6208     0.0280    -0.0419 H       
  22 H22            3.4368     3.2037     0.5021 H       
  23 H23            4.4100     1.7134     0.4833 H       
  24 H24            4.1177     1.6114    -2.0099 H       
  25 H25            3.2601     3.6329    -3.1618 H       
  26 H26            2.0077     2.9089    -2.1247 H       
  27 H27            2.8752     4.3672    -1.5867 H       
  28 H28            6.1276     2.6541    -0.9991 H       
  29 H29            5.6660     3.4841    -2.5045 H       
  30 H30            5.2810     4.2184    -0.9294 H       
@<TRIPOS>BOND
   1    1    2 2
   2    1    6 1
   3    1   18 1
   4    2    3 1
   5    2   11 1
   6    3    4 ar
   7    3    7 ar
   8    4    5 1
   9    4   10 ar
  10    5    6 am
  11    5   13 1
  12    6   12 2
  13    7    8 ar
  14    7   19 1
  15    8    9 ar
  16    8   17 1
  17    9   10 ar
  18    9   20 1
  19   10   21 1
  20   13   14 1
  21   13   22 1
  22   13   23 1
  23   14   16 1
  24   14   15 1
  25   14   24 1
  26   15   25 1
  27   15   26 1
  28   15   27 1
  29   16   28 1
  30   16   29 1
  31   16   30 1

#	End of record

