#	Name: ASD00731023
#	Creating user name:	WinNT
#	Creation time:	15. 06. 2019 18:37

#	Modifying user name:	WinNT
#	Modification time:	15. 06. 2019 18:37

#	Program:	/corina/corina34_cracker 3.40 0067  02.08.2006

@<TRIPOS>MOLECULE
ASD00731023
 225  226    0    0    0
SMALL
NO_CHARGES


@<TRIPOS>ATOM
   1 C1            -0.0144     1.2086     0.0087 C.2     
   2 O2             0.0021    -0.0041     0.0020 O.2     
   3 N3             2.4066     1.0431    -0.0153 N.am    
   4 C4             1.2803     1.9798     0.0005 C.3     
   5 C5            -3.5426     1.9694    -0.5709 C.2     
   6 O6            -3.2948     3.0926    -0.9556 O.2     
   7 N7            -1.1906     1.8666     0.0178 N.am    
   8 C8            -2.4492     1.1169     0.0197 C.3     
   9 C9            -2.8163     0.7401     1.4565 C.3     
  10 O10           -3.0819     1.9267     2.2071 O.3     
  11 C11           -7.1533     1.5413    -1.2439 C.2     
  12 O12           -7.1851     0.4107    -0.8060 O.2     
  13 N13           -4.7957     1.4837    -0.6717 N.am    
  14 C14           -5.8586     2.3124    -1.2459 C.3     
  15 C15          -10.4387     1.8918    -2.8082 C.2     
  16 O16          -10.0681     2.8080    -3.5112 O.2     
  17 N17           -8.2759     2.1079    -1.7288 N.am    
  18 C18           -9.5346     1.3583    -1.7269 C.3     
  19 C19          -10.2188     1.5138    -0.3673 C.3     
  20 C20           -9.3570     0.8606     0.7150 C.3     
  21 C21          -10.0412     1.0161     2.0746 C.3     
  22 N22           -9.2159     0.3906     3.1110 N.pl3   
  23 C23           -9.6306     0.4052     4.4217 C.2     
  24 N24          -10.7579     0.9755     4.7423 N.2     
  25 N25           -8.8562    -0.1818     5.3942 N.pl3   
  26 C26          -13.9731     1.5802    -3.6879 C.2     
  27 O27          -14.2359     0.9982    -2.6568 O.2     
  28 N28          -11.6590     1.3507    -2.9940 N.am    
  29 C29          -12.5379     1.8694    -4.0451 C.3     
  30 C30          -12.1970     1.1932    -5.3746 C.3     
  31 C31          -10.7812     1.5881    -5.7994 C.3     
  32 C32          -10.3936     0.8160    -7.0621 C.3     
  33 C33          -10.7350     3.0903    -6.0858 C.3     
  34 C34          -17.1897     1.6360    -5.4238 C.2     
  35 O35          -16.6672     1.8165    -6.5033 O.2     
  36 N36          -14.9645     1.9684    -4.5142 N.am    
  37 C37          -16.3598     1.6873    -4.1670 C.3     
  38 C38          -16.8897     2.7919    -3.2505 C.3     
  39 C39          -16.1286     2.7626    -1.9236 C.3     
  40 C40          -16.6585     3.8673    -1.0072 C.3     
  41 N41          -15.9297     3.8393     0.2633 N.pl3   
  42 C42          -16.2346     4.7459     1.2508 C.2     
  43 N43          -15.5861     4.7210     2.3812 N.2     
  44 N44          -17.2234     5.6789     1.0460 N.pl3   
  45 C45          -20.7531     1.6651    -6.2388 C.2     
  46 O46          -21.0698     1.9140    -5.0948 O.2     
  47 N47          -18.5126     1.3896    -5.3482 N.am    
  48 C48          -19.3194     1.3397    -6.5700 C.3     
  49 C49          -19.2416    -0.0631    -7.1757 C.3     
  50 C50          -17.8069    -0.3452    -7.6262 C.3     
  51 C51          -17.7291    -1.7481    -8.2319 C.3     
  52 N52          -16.3553    -2.0182    -8.6633 N.pl3   
  53 C53          -16.0412    -3.2252    -9.2417 C.2     
  54 N54          -14.8190    -3.4655    -9.6256 N.2     
  55 N55          -17.0163    -4.1788    -9.4153 N.pl3   
  56 C56          -23.9841     1.3769    -7.9243 C.2     
  57 O57          -23.5126     0.7350    -8.8390 O.2     
  58 N58          -21.6834     1.6793    -7.2139 N.am    
  59 C59          -23.0772     1.9956    -6.8919 C.3     
  60 C60          -23.2682     3.5136    -6.8894 C.3     
  61 C61          -22.4418     4.1298    -5.7588 C.3     
  62 C62          -22.6328     5.6478    -5.7563 C.3     
  63 C63          -21.8064     6.2639    -4.6257 C.3     
  64 N64          -21.9898     7.7215    -4.6233 N.3     
  65 C65          -27.4916     1.7103    -8.8984 C.2     
  66 O66          -27.6588     2.6704    -8.1765 O.2     
  67 N67          -25.3191     1.5369    -7.8312 N.am    
  68 C68          -26.2007     0.9354    -8.8348 C.3     
  69 C69          -26.4953    -0.5159    -8.4506 C.3     
  70 C70          -25.2213    -1.3190    -8.5065 C.2     
  71 C71          -24.7861    -2.0549    -9.5414 C.2     
  72 N72          -23.5904    -2.6412    -9.2268 N.pl3   
  73 C73          -23.2176    -2.2878    -7.9493 C.ar    
  74 C74          -22.1194    -2.5947    -7.1529 C.ar    
  75 C75          -22.0285    -2.0713    -5.8815 C.ar    
  76 C76          -23.0227    -1.2395    -5.3857 C.ar    
  77 C77          -24.1106    -0.9253    -6.1510 C.ar    
  78 C78          -24.2199    -1.4394    -7.4442 C.ar    
  79 C79          -30.6590     1.5813    -8.7600 C.2     
  80 O80          -30.3182     0.6822    -8.0283 O.2     
  81 N81          -28.4604     1.3363    -9.7576 N.am    
  82 C82          -29.7154     2.0895    -9.8194 C.3     
  83 C83          -30.3518     1.9078   -11.1989 C.3     
  84 C84          -29.4500     2.5359   -12.2633 C.3     
  85 S85          -30.2045     2.3205   -13.8988 S.3     
  86 C86          -29.0092     3.1157   -15.0076 C.3     
  87 O87          -31.8781     2.1276    -8.6291 O.3     
  88 C88            3.6710     1.5096    -0.0249 C.2     
  89 O89            3.8764     2.7048    -0.0204 O.2     
  90 C90           22.2645    -0.8215    -0.2149 C.3     
  91 C91           21.0883     0.1568    -0.1985 C.3     
  92 C92           19.7738    -0.6261    -0.1901 C.3     
  93 C93           18.5976     0.3522    -0.1736 C.3     
  94 C94           17.2831    -0.4308    -0.1653 C.3     
  95 C95           16.1069     0.5475    -0.1488 C.3     
  96 C96           14.7924    -0.2354    -0.1404 C.3     
  97 C97           13.6162     0.7429    -0.1240 C.3     
  98 C98           12.3017    -0.0401    -0.1156 C.3     
  99 C99           11.1255     0.9382    -0.0991 C.3     
 100 C100           9.8110     0.1553    -0.0908 C.3     
 101 C101           8.6348     1.1336    -0.0743 C.3     
 102 C102           7.3203     0.3506    -0.0660 C.3     
 103 C103           6.1440     1.3289    -0.0495 C.3     
 104 C104           4.8296     0.5460    -0.0411 C.3     
 105 H105           2.2423     0.0871    -0.0189 H       
 106 H106           1.3211     2.6120    -0.8866 H       
 107 H107           1.3381     2.6024     0.8933 H       
 108 H108          -1.2037     2.8365     0.0232 H       
 109 H109          -2.3335     0.2109    -0.5752 H       
 110 H110          -3.7039     0.1075     1.4507 H       
 111 H111          -1.9875     0.1991     1.9132 H       
 112 H112          -3.3217     1.7632     3.1295 H       
 113 H113          -4.9939     0.5854    -0.3641 H       
 114 H114          -5.5971     2.5809    -2.2695 H       
 115 H115          -5.9744     3.2184    -0.6510 H       
 116 H116          -8.2505     3.0122    -2.0791 H       
 117 H117          -9.3297     0.3038    -1.9121 H       
 118 H118         -10.3435     2.5730    -0.1423 H       
 119 H119         -11.1955     1.0308    -0.3947 H       
 120 H120          -9.2323    -0.1987     0.4900 H       
 121 H121          -8.3802     1.3436     0.7424 H       
 122 H122         -10.1658     2.0753     2.2996 H       
 123 H123         -11.0179     0.5330     2.0472 H       
 124 H124          -8.3770    -0.0339     2.8724 H       
 125 H125         -11.0504     0.9858     5.6671 H       
 126 H126          -8.0172    -0.6063     5.1556 H       
 127 H127          -9.1487    -0.1715     6.3190 H       
 128 H128         -11.9554     0.6180    -2.4318 H       
 129 H129         -12.3965     2.9461    -4.1384 H       
 130 H130         -12.2524     0.1110    -5.2565 H       
 131 H131         -12.9075     1.5123    -6.1372 H       
 132 H132         -10.0816     1.3492    -4.9984 H       
 133 H133         -11.0932     1.0548    -7.8631 H       
 134 H134          -9.3850     1.0973    -7.3648 H       
 135 H135         -10.4265    -0.2543    -6.8581 H       
 136 H136         -11.4346     3.3291    -6.8868 H       
 137 H137         -11.0112     3.6404    -5.1862 H       
 138 H138          -9.7264     3.3716    -6.3885 H       
 139 H139         -14.7543     2.4338    -5.3389 H       
 140 H140         -16.4200     0.7283    -3.6524 H       
 141 H141         -16.7478     3.7607    -3.7296 H       
 142 H142         -17.9515     2.6309    -3.0639 H       
 143 H143         -16.2705     1.7939    -1.4446 H       
 144 H144         -15.0668     2.9236    -2.1102 H       
 145 H145         -16.5166     4.8360    -1.4862 H       
 146 H146         -17.7203     3.7063    -0.8206 H       
 147 H147         -15.2320     3.1810     0.4078 H       
 148 H148         -15.8012     5.3607     3.0780 H       
 149 H149         -17.7060     5.6974     0.2048 H       
 150 H150         -17.4385     6.3186     1.7427 H       
 151 H151         -18.9305     1.2452    -4.4848 H       
 152 H152         -18.9382     2.0667    -7.2870 H       
 153 H153         -19.5389    -0.7986    -6.4282 H       
 154 H154         -19.9109    -0.1261    -8.0337 H       
 155 H155         -17.5096     0.3903    -8.3737 H       
 156 H156         -17.1376    -0.2823    -6.7682 H       
 157 H157         -18.0264    -2.4836    -7.4844 H       
 158 H158         -18.3984    -1.8110    -9.0899 H       
 159 H159         -15.6674    -1.3454    -8.5409 H       
 160 H160         -14.5974    -4.3171   -10.0337 H       
 161 H161         -17.9259    -3.9999    -9.1296 H       
 162 H162         -16.7947    -5.0304    -9.8234 H       
 163 H163         -21.4302     1.4802    -8.1288 H       
 164 H164         -23.3222     1.5969    -5.9075 H       
 165 H165         -22.9392     3.9228    -7.8446 H       
 166 H166         -24.3221     3.7469    -6.7379 H       
 167 H167         -22.7709     3.7206    -4.8036 H       
 168 H168         -21.3879     3.8964    -5.9103 H       
 169 H169         -22.3038     6.0570    -6.7115 H       
 170 H170         -23.6867     5.8811    -5.6048 H       
 171 H171         -22.1355     5.8548    -3.6705 H       
 172 H172         -20.7525     6.0306    -4.7772 H       
 173 H173         -21.4537     8.1521    -3.8849 H       
 174 H174         -21.7525     8.1172    -5.5206 H       
 175 H175         -25.6961     2.0503    -7.0997 H       
 176 H176         -25.7129     0.9615    -9.8093 H       
 177 H177         -26.9015    -0.5489    -7.4397 H       
 178 H178         -27.2206    -0.9362    -9.1474 H       
 179 H179         -25.3033    -2.1678   -10.4828 H       
 180 H180         -23.0813    -3.2195    -9.8161 H       
 181 H181         -21.3407    -3.2414    -7.5295 H       
 182 H182         -21.1752    -2.3111    -5.2645 H       
 183 H183         -22.9362    -0.8375    -4.3871 H       
 184 H184         -24.8805    -0.2776    -5.7584 H       
 185 H185         -28.3267     0.5684   -10.3350 H       
 186 H186         -29.5133     3.1470    -9.6490 H       
 187 H187         -30.4724     0.8446   -11.4061 H       
 188 H188         -31.3271     2.3943   -11.2159 H       
 189 H189         -29.3293     3.5992   -12.0560 H       
 190 H190         -28.4747     2.0494   -12.2462 H       
 191 H191         -28.0450     2.6148   -14.9219 H       
 192 H192         -29.3649     3.0458   -16.0356 H       
 193 H193         -28.8996     4.1645   -14.7317 H       
 194 H194         -32.4480     1.7683    -7.9354 H       
 195 H195          22.2068    -1.4441    -1.1078 H       
 196 H196          23.2010    -0.2637    -0.2209 H       
 197 H197          22.2238    -1.4536     0.6721 H       
 198 H198          21.1460     0.7794     0.6944 H       
 199 H199          21.1290     0.7890    -1.0855 H       
 200 H200          19.7161    -1.2487    -1.0829 H       
 201 H201          19.7331    -1.2583     0.6969 H       
 202 H202          18.6553     0.9748     0.7192 H       
 203 H203          18.6383     0.9843    -1.0607 H       
 204 H204          17.2254    -1.0534    -1.0581 H       
 205 H205          17.2424    -1.0629     0.7218 H       
 206 H206          16.1646     1.1701     0.7440 H       
 207 H207          16.1476     1.1797    -1.0358 H       
 208 H208          14.7347    -0.8580    -1.0333 H       
 209 H209          14.7517    -0.8676     0.7466 H       
 210 H210          13.6739     1.3655     0.7689 H       
 211 H211          13.6569     1.3750    -1.0110 H       
 212 H212          12.2440    -0.6627    -1.0084 H       
 213 H213          12.2610    -0.6722     0.7714 H       
 214 H214          11.1832     1.5608     0.7937 H       
 215 H215          11.1662     1.5704    -0.9862 H       
 216 H216           9.7533    -0.4673    -0.9836 H       
 217 H217           9.7703    -0.4769     0.7962 H       
 218 H218           8.6925     1.7562     0.8185 H       
 219 H219           8.6755     1.7657    -0.9613 H       
 220 H220           7.2626    -0.2720    -0.9588 H       
 221 H221           7.2796    -0.2815     0.8211 H       
 222 H222           6.2018     1.9515     0.8434 H       
 223 H223           6.1848     1.9611    -0.9365 H       
 224 H224           4.7888    -0.0862     0.8459 H       
 225 H225           4.7719    -0.0766    -0.9340 H       
@<TRIPOS>BOND
   1    1    2 2
   2    1    4 1
   3    1    7 am
   4    3    4 1
   5    3   88 am
   6    3  105 1
   7    4  106 1
   8    4  107 1
   9    5    6 2
  10    5    8 1
  11    5   13 am
  12    7    8 1
  13    7  108 1
  14    8    9 1
  15    8  109 1
  16    9   10 1
  17    9  110 1
  18    9  111 1
  19   10  112 1
  20   11   12 2
  21   11   14 1
  22   11   17 am
  23   13   14 1
  24   13  113 1
  25   14  114 1
  26   14  115 1
  27   15   16 2
  28   15   18 1
  29   15   28 am
  30   17   18 1
  31   17  116 1
  32   18   19 1
  33   18  117 1
  34   19   20 1
  35   19  118 1
  36   19  119 1
  37   20   21 1
  38   20  120 1
  39   20  121 1
  40   21   22 1
  41   21  122 1
  42   21  123 1
  43   22   23 1
  44   22  124 1
  45   23   24 2
  46   23   25 1
  47   24  125 1
  48   25  126 1
  49   25  127 1
  50   26   27 2
  51   26   29 1
  52   26   36 am
  53   28   29 1
  54   28  128 1
  55   29   30 1
  56   29  129 1
  57   30   31 1
  58   30  130 1
  59   30  131 1
  60   31   32 1
  61   31   33 1
  62   31  132 1
  63   32  133 1
  64   32  134 1
  65   32  135 1
  66   33  136 1
  67   33  137 1
  68   33  138 1
  69   34   35 2
  70   34   37 1
  71   34   47 am
  72   36   37 1
  73   36  139 1
  74   37   38 1
  75   37  140 1
  76   38   39 1
  77   38  141 1
  78   38  142 1
  79   39   40 1
  80   39  143 1
  81   39  144 1
  82   40   41 1
  83   40  145 1
  84   40  146 1
  85   41   42 1
  86   41  147 1
  87   42   43 2
  88   42   44 1
  89   43  148 1
  90   44  149 1
  91   44  150 1
  92   45   46 2
  93   45   48 1
  94   45   58 am
  95   47   48 1
  96   47  151 1
  97   48   49 1
  98   48  152 1
  99   49   50 1
 100   49  153 1
 101   49  154 1
 102   50   51 1
 103   50  155 1
 104   50  156 1
 105   51   52 1
 106   51  157 1
 107   51  158 1
 108   52   53 1
 109   52  159 1
 110   53   54 2
 111   53   55 1
 112   54  160 1
 113   55  161 1
 114   55  162 1
 115   56   57 2
 116   56   59 1
 117   56   67 am
 118   58   59 1
 119   58  163 1
 120   59   60 1
 121   59  164 1
 122   60   61 1
 123   60  165 1
 124   60  166 1
 125   61   62 1
 126   61  167 1
 127   61  168 1
 128   62   63 1
 129   62  169 1
 130   62  170 1
 131   63   64 1
 132   63  171 1
 133   63  172 1
 134   64  173 1
 135   64  174 1
 136   65   66 2
 137   65   68 1
 138   65   81 am
 139   67   68 1
 140   67  175 1
 141   68   69 1
 142   68  176 1
 143   69   70 1
 144   69  177 1
 145   69  178 1
 146   70   71 2
 147   70   78 1
 148   71   72 1
 149   71  179 1
 150   72   73 1
 151   72  180 1
 152   73   74 ar
 153   73   78 ar
 154   74   75 ar
 155   74  181 1
 156   75   76 ar
 157   75  182 1
 158   76   77 ar
 159   76  183 1
 160   77   78 ar
 161   77  184 1
 162   79   80 2
 163   79   82 1
 164   79   87 1
 165   81   82 1
 166   81  185 1
 167   82   83 1
 168   82  186 1
 169   83   84 1
 170   83  187 1
 171   83  188 1
 172   84   85 1
 173   84  189 1
 174   84  190 1
 175   85   86 1
 176   86  191 1
 177   86  192 1
 178   86  193 1
 179   87  194 1
 180   88   89 2
 181   88  104 1
 182   90   91 1
 183   90  195 1
 184   90  196 1
 185   90  197 1
 186   91   92 1
 187   91  198 1
 188   91  199 1
 189   92   93 1
 190   92  200 1
 191   92  201 1
 192   93   94 1
 193   93  202 1
 194   93  203 1
 195   94   95 1
 196   94  204 1
 197   94  205 1
 198   95   96 1
 199   95  206 1
 200   95  207 1
 201   96   97 1
 202   96  208 1
 203   96  209 1
 204   97   98 1
 205   97  210 1
 206   97  211 1
 207   98   99 1
 208   98  212 1
 209   98  213 1
 210   99  100 1
 211   99  214 1
 212   99  215 1
 213  100  101 1
 214  100  216 1
 215  100  217 1
 216  101  102 1
 217  101  218 1
 218  101  219 1
 219  102  103 1
 220  102  220 1
 221  102  221 1
 222  103  104 1
 223  103  222 1
 224  103  223 1
 225  104  224 1
 226  104  225 1

#	End of record

