#	Name: ASD01885310
#	Creating user name:	WinNT
#	Creation time:	15. 06. 2019 19:49

#	Modifying user name:	WinNT
#	Modification time:	15. 06. 2019 19:49

#	Program:	/corina/corina34_cracker 3.40 0067  02.08.2006

@<TRIPOS>MOLECULE
ASD01885310
  52   56    0    0    0
SMALL
NO_CHARGES


@<TRIPOS>ATOM
   1 C1             0.4088     1.4757    -1.0177 C.2     
   2 C2             0.3083     0.0745    -0.9807 C.2     
   3 C3             0.9238    -0.6116     0.0308 C.2     
   4 C4             1.6459     0.0976     1.0153 C.2     
   5 C5             1.7293     1.4412     0.9604 C.2     
   6 N6             1.1192     2.1347    -0.0439 N.pl3   
   7 C7             1.0313     3.4604    -0.3524 C.2     
   8 N8             0.3136     3.5640    -1.4398 N.2     
   9 N9            -0.0556     2.3999    -1.8448 N.2     
  10 C10            1.6489     4.5979     0.4194 C.3     
  11 N11            0.8381    -1.9994     0.0890 N.pl3   
  12 C12            2.0151    -2.8378    -0.1806 C.3     
  13 C13            2.2670    -3.7468     1.0280 C.3     
  14 N14            1.0192    -4.4538     1.3567 N.pl3   
  15 C15           -0.1437    -3.6866     1.5027 C.2     
  16 C16           -0.4324    -2.6625     0.4280 C.3     
  17 C17            0.9950    -5.8415     1.5170 C.ar    
  18 C18           -0.2146    -6.5004     1.6983 C.ar    
  19 C19           -0.2349    -7.8722     1.8560 C.ar    
  20 C20            0.9469    -8.5900     1.8336 C.ar    
  21 C21            2.1528    -7.9372     1.6539 C.ar    
  22 C22            2.1800    -6.5663     1.4899 C.ar    
  23 C23            3.0538     4.8761    -0.1189 C.3     
  24 C24            3.8063     6.0771     0.4575 C.3     
  25 C25            4.2314     4.6561     0.8328 C.3     
  26 C26           -0.9513    -3.8481     2.5345 C.2     
  27 C27           -0.4678    -0.6631    -2.0411 C.3     
  28 F28           -1.7662    -0.9093    -1.5823 F       
  29 F29           -0.5234     0.1137    -3.2034 F       
  30 F30            0.1658    -1.8783    -2.3223 F       
  31 H31            2.1332    -0.4392     1.8159 H       
  32 H32            2.2840     1.9742     1.7184 H       
  33 H33            1.0333     5.4903     0.3064 H       
  34 H34            1.7104     4.3302     1.4742 H       
  35 H35            1.8332    -3.4486    -1.0648 H       
  36 H36            2.8851    -2.2025    -0.3468 H       
  37 H37            3.0443    -4.4711     0.7847 H       
  38 H38            2.5805    -3.1435     1.8800 H       
  39 H39           -1.1481    -1.9287     0.7985 H       
  40 H40           -0.8327    -3.1573    -0.4570 H       
  41 H41           -1.1379    -5.9405     1.7161 H       
  42 H42           -1.1748    -8.3850     1.9972 H       
  43 H43            0.9282    -9.6627     1.9572 H       
  44 H44            3.0736    -8.5013     1.6333 H       
  45 H45            3.1220    -6.0572     1.3492 H       
  46 H46            3.2079     4.6442    -1.1728 H       
  47 H47            4.4557     6.6351    -0.2170 H       
  48 H48            3.3004     6.6691     1.2203 H       
  49 H49            4.0053     4.3131     1.8424 H       
  50 H50            5.1605     4.2792     0.4051 H       
  51 H51           -0.7215    -4.5849     3.2899 H       
  52 H52           -1.8417    -3.2434     2.6231 H       
@<TRIPOS>BOND
   1    1    2 1
   2    1    6 1
   3    1    9 2
   4    2   27 1
   5    2    3 2
   6    3    4 1
   7    3   11 1
   8    4    5 2
   9    4   31 1
  10    5    6 1
  11    5   32 1
  12    6    7 1
  13    7    8 2
  14    7   10 1
  15    8    9 1
  16   10   23 1
  17   10   33 1
  18   10   34 1
  19   11   12 1
  20   11   16 1
  21   12   13 1
  22   12   35 1
  23   12   36 1
  24   13   14 1
  25   13   37 1
  26   13   38 1
  27   14   15 1
  28   14   17 1
  29   15   16 1
  30   15   26 2
  31   16   39 1
  32   16   40 1
  33   17   18 ar
  34   17   22 ar
  35   18   19 ar
  36   18   41 1
  37   19   20 ar
  38   19   42 1
  39   20   21 ar
  40   20   43 1
  41   21   22 ar
  42   21   44 1
  43   22   45 1
  44   23   24 1
  45   23   25 1
  46   23   46 1
  47   24   25 1
  48   24   47 1
  49   24   48 1
  50   25   49 1
  51   25   50 1
  52   26   51 1
  53   26   52 1
  54   27   28 1
  55   27   29 1
  56   27   30 1

#	End of record

