#	Name: ASD01200263
#	Creating user name:	WinNT
#	Creation time:	15. 06. 2019 19:08

#	Modifying user name:	WinNT
#	Modification time:	15. 06. 2019 19:08

#	Program:	/corina/corina34_cracker 3.40 0067  02.08.2006

@<TRIPOS>MOLECULE
ASD01200263
  70   74    0    0    0
SMALL
NO_CHARGES


@<TRIPOS>ATOM
   1 N1             0.3670     2.0658     0.3856 N.am    
   2 C2             0.4619     0.6072     0.5488 C.3     
   3 C3            -0.3535     0.2012     1.7811 C.3     
   4 N4            -1.7203     0.7244     1.6540 N.3     
   5 C5            -1.7282     2.1930     1.6255 C.3     
   6 C6            -0.9688     2.6814     0.3931 C.3     
   7 C7            -2.5815     0.2140     2.7292 C.3     
   8 S8             1.7284     2.9912     0.2052 S.o2    
   9 C9             2.0668     3.0900    -1.5212 C.ar    
  10 O10            1.3791     4.3043     0.6214 O.2     
  11 O11            2.7958     2.2514     0.7817 O.2     
  12 C12            1.5210     4.1120    -2.2752 C.ar    
  13 C13            1.7865     4.1895    -3.6296 C.ar    
  14 C14            2.5982     3.2452    -4.2299 C.ar    
  15 C15            3.1447     2.2237    -3.4758 C.ar    
  16 C16            2.8827     2.1488    -2.1205 C.ar    
  17 C17            2.8868     3.3291    -5.7066 C.3     
  18 C18            2.4007     2.0746    -6.3855 C.2     
  19 C19            4.3942     3.4754    -5.9242 C.3     
  20 C20            4.8677     4.8058    -5.3353 C.3     
  21 C21            6.3992     4.9128    -5.4391 C.3     
  22 C22            6.6963     6.1488    -6.3130 C.3     
  23 C23            5.4287     7.0276    -6.1716 C.3     
  24 C24            4.2876     5.9805    -6.1497 C.3     
  25 N25            2.4493     1.9731    -7.7286 N.am    
  26 O26            1.9658     1.1564    -5.7234 O.2     
  27 C27            2.0930     0.7851    -8.3471 C.2     
  28 N28            2.1050     0.5866    -9.6188 N.2     
  29 C29            1.7305    -0.6268   -10.0700 C.ar    
  30 C30            1.3761    -1.5066    -9.0429 C.ar    
  31 S31            1.5680    -0.6661    -7.5052 S.3     
  32 C32            1.6568    -1.0971   -11.4003 C.ar    
  33 C33            1.2464    -2.3798   -11.6276 C.ar    
  34 C34            0.9096    -3.1977   -10.5532 C.ar    
  35 N35            0.9815    -2.7480    -9.3157 N.ar    
  36 O36            0.5016    -4.4719   -10.7817 O.3     
  37 C37            0.1697    -5.2618    -9.6381 C.3     
  38 H38            0.0598     0.1128    -0.3355 H       
  39 H39            1.5044     0.3215     0.6892 H       
  40 H40           -0.3855    -0.8859     1.8541 H       
  41 H41            0.1116     0.6127     2.6768 H       
  42 H42           -2.7571     2.5505     1.5857 H       
  43 H43           -1.2439     2.5769     2.5234 H       
  44 H44           -0.8733     3.7666     0.4280 H       
  45 H45           -1.5060     2.3871    -0.5085 H       
  46 H46           -2.1781     0.5208     3.6942 H       
  47 H47           -3.5874     0.6169     2.6111 H       
  48 H48           -2.6178    -0.8743     2.6799 H       
  49 H49            0.8869     4.8498    -1.8061 H       
  50 H50            1.3595     4.9876    -4.2188 H       
  51 H51            3.7786     1.4858    -3.9449 H       
  52 H52            3.3097     1.3507    -1.5313 H       
  53 H53            2.3733     4.1929    -6.1287 H       
  54 H54            4.9139     2.6541    -5.4307 H       
  55 H55            4.6110     3.4531    -6.9921 H       
  56 H56            4.5577     4.8839    -4.2932 H       
  57 H57            6.8324     5.0438    -4.4475 H       
  58 H58            6.8051     4.0170    -5.9090 H       
  59 H59            7.5719     6.6792    -5.9386 H       
  60 H60            6.8428     5.8549    -7.3523 H       
  61 H61            5.4524     7.5927    -5.2399 H       
  62 H62            5.3241     7.6951    -7.0270 H       
  63 H63            4.0451     5.6593    -7.1627 H       
  64 H64            3.4053     6.3880    -5.6562 H       
  65 H65            2.7336     2.7315    -8.2623 H       
  66 H66            1.9208    -0.4519   -12.2252 H       
  67 H67            1.1832    -2.7578   -12.6374 H       
  68 H68            1.0414    -5.3454    -8.9889 H       
  69 H69           -0.6455    -4.7866    -9.0924 H       
  70 H70           -0.1398    -6.2560    -9.9605 H       
@<TRIPOS>BOND
   1    1    2 1
   2    1    8 am
   3    1    6 1
   4    2    3 1
   5    2   38 1
   6    2   39 1
   7    3    4 1
   8    3   40 1
   9    3   41 1
  10    4    5 1
  11    4    7 1
  12    5    6 1
  13    5   42 1
  14    5   43 1
  15    6   44 1
  16    6   45 1
  17    7   46 1
  18    7   47 1
  19    7   48 1
  20    8    9 1
  21    8   10 2
  22    8   11 2
  23    9   12 ar
  24    9   16 ar
  25   12   13 ar
  26   12   49 1
  27   13   14 ar
  28   13   50 1
  29   14   15 ar
  30   14   17 1
  31   15   16 ar
  32   15   51 1
  33   16   52 1
  34   17   18 1
  35   17   19 1
  36   17   53 1
  37   18   25 am
  38   18   26 2
  39   19   20 1
  40   19   54 1
  41   19   55 1
  42   20   21 1
  43   20   24 1
  44   20   56 1
  45   21   22 1
  46   21   57 1
  47   21   58 1
  48   22   23 1
  49   22   59 1
  50   22   60 1
  51   23   24 1
  52   23   61 1
  53   23   62 1
  54   24   63 1
  55   24   64 1
  56   25   27 1
  57   25   65 1
  58   27   28 2
  59   27   31 1
  60   28   29 1
  61   29   30 ar
  62   29   32 ar
  63   30   31 1
  64   30   35 ar
  65   32   33 ar
  66   32   66 1
  67   33   34 ar
  68   33   67 1
  69   34   35 ar
  70   34   36 1
  71   36   37 1
  72   37   68 1
  73   37   69 1
  74   37   70 1

#	End of record

