#	Name: ASD03430716
#	Creating user name:	WinNT
#	Creation time:	15. 06. 2019 20:41

#	Modifying user name:	WinNT
#	Modification time:	15. 06. 2019 20:41

#	Program:	/corina/corina34_cracker 3.40 0067  02.08.2006

@<TRIPOS>MOLECULE
ASD03430716
  38   42    0    0    0
SMALL
NO_CHARGES


@<TRIPOS>ATOM
   1 C1            -0.0167     1.3822     0.0096 C.ar    
   2 C2             0.0021    -0.0041     0.0020 C.ar    
   3 C3             1.2028    -0.6819    -0.0153 C.ar    
   4 C4             2.4086     0.0129    -0.0151 C.ar    
   5 C5             2.3862     1.4040    -0.0117 C.ar    
   6 C6             1.1815     2.0867     0.0020 C.ar    
   7 O7             3.4712    -0.8420    -0.0048 O.3     
   8 C8             1.5511    -2.1458    -0.0491 C.3     
   9 C9             3.0367    -2.1462    -0.4350 C.3     
  10 C10            0.4275    -3.8609     1.0078 C.ar    
  11 C11            1.3147    -2.8198     1.2698 C.ar    
  12 C12            0.7178    -2.9069    -1.0400 C.2     
  13 N13            0.0987    -3.8852    -0.3497 N.am    
  14 O14            0.6209    -2.6847    -2.2284 O.2     
  15 C15            1.7790    -2.5997     2.5479 C.ar    
  16 C16            1.3653    -3.4175     3.5862 C.ar    
  17 C17            0.4856    -4.4542     3.3365 C.ar    
  18 C18            0.0172    -4.6779     2.0581 C.ar    
  19 C19           -0.8125    -4.8609    -0.9531 C.3     
  20 O20           -1.2112     2.0357     0.0189 O.3     
  21 C21           -1.1866     3.4165     0.3966 C.3     
  22 C22           -0.0349     4.0989    -0.3539 C.3     
  23 O23            1.1866     3.4483     0.0115 O.3     
  24 Br24           2.9824    -1.1805     2.8849 Br      
  25 H25           -0.9268    -0.5549     0.0100 H       
  26 H26            3.3149     1.9552    -0.0195 H       
  27 H27            3.1567    -2.2583    -1.5125 H       
  28 H28            3.5751    -2.9292     0.0990 H       
  29 H29            1.7294    -3.2459     4.5884 H       
  30 H30            0.1636    -5.0924     4.1461 H       
  31 H31           -0.6700    -5.4898     1.8713 H       
  32 H32           -1.8312    -4.4743    -0.9220 H       
  33 H33           -0.5222    -5.0371    -1.9888 H       
  34 H34           -0.7621    -5.7972    -0.3973 H       
  35 H35           -2.1316     3.8883     0.1272 H       
  36 H36           -1.0262     3.5009     1.4714 H       
  37 H37           -0.1916     4.0081    -1.4287 H       
  38 H38            0.0119     5.1519    -0.0763 H       
@<TRIPOS>BOND
   1    1    2 ar
   2    1    6 ar
   3    1   20 1
   4    2    3 ar
   5    2   25 1
   6    3    4 ar
   7    3    8 1
   8    4    5 ar
   9    4    7 1
  10    5    6 ar
  11    5   26 1
  12    6   23 1
  13    7    9 1
  14    8    9 1
  15    8   11 1
  16    8   12 1
  17    9   27 1
  18    9   28 1
  19   10   11 ar
  20   10   13 1
  21   10   18 ar
  22   11   15 ar
  23   12   13 am
  24   12   14 2
  25   13   19 1
  26   15   16 ar
  27   15   24 1
  28   16   17 ar
  29   16   29 1
  30   17   18 ar
  31   17   30 1
  32   18   31 1
  33   19   32 1
  34   19   33 1
  35   19   34 1
  36   20   21 1
  37   21   22 1
  38   21   35 1
  39   21   36 1
  40   22   23 1
  41   22   37 1
  42   22   38 1

#	End of record

