#	Name: ASD09740670
#	Creating user name:	WinNT
#	Creation time:	15. 06. 2019 21:23

#	Modifying user name:	WinNT
#	Modification time:	15. 06. 2019 21:23

#	Program:	/corina/corina34_cracker 3.40 0067  02.08.2006

@<TRIPOS>MOLECULE
ASD09740670
  55   57    0    0    0
SMALL
NO_CHARGES


@<TRIPOS>ATOM
   1 C1            -0.0215     1.3428    -0.0399 C.2     
   2 N2             0.0021    -0.0041     0.0020 N.am    
   3 O3             1.0268     1.9721    -0.0741 O.co2   
   4 O4            -1.0912     1.9358    -0.0487 O.co2   
   5 C5            -1.2449    -0.7535     0.1741 C.3     
   6 C6            -2.2180    -0.4473    -0.9842 C.3     
   7 C7            -3.5920    -0.4948    -0.2824 C.3     
   8 C8            -3.3096    -0.1492     1.1639 C.ar    
   9 C9            -4.1724     0.2665     2.1800 C.ar    
  10 C10           -3.6724     0.5297     3.4528 C.ar    
  11 C11           -2.3241     0.3784     3.7046 C.ar    
  12 C12           -1.4730    -0.0328     2.6960 C.ar    
  13 C13           -1.9634    -0.2974     1.4262 C.ar    
  14 O14           -6.7294     0.8522     2.8030 O.3     
  15 B15           -5.7055     0.4375     1.8876 Du      
  16 O16           -6.3892     0.2138     0.6463 O.3     
  17 C17           -7.3556     1.2825     0.5639 C.3     
  18 C18           -7.5862     1.7153     2.0261 C.3     
  19 C19           -9.0502     1.5072     2.4191 C.3     
  20 C20           -7.1842     3.1790     2.2185 C.3     
  21 C21           -6.7942     2.4469    -0.2546 C.3     
  22 C22           -8.6601     0.7751    -0.0540 C.3     
  23 C23            1.2747    -0.7187    -0.1246 C.3     
  24 C24            2.4037     0.2875    -0.3563 C.3     
  25 C25            1.5479    -1.5051     1.1591 C.3     
  26 C26            1.2015    -1.6848    -1.3087 C.3     
  27 H27           -1.0405    -1.8230     0.2237 H       
  28 H28           -2.0283     0.5430    -1.3982 H       
  29 H29           -2.1517    -1.2116    -1.7584 H       
  30 H30           -4.2669     0.2396    -0.7220 H       
  31 H31           -4.0199    -1.4946    -0.3558 H       
  32 H32           -4.3377     0.8516     4.2403 H       
  33 H33           -1.9333     0.5818     4.6907 H       
  34 H34           -0.4185    -0.1489     2.8984 H       
  35 H35           -9.1840     1.7625     3.4703 H       
  36 H36           -9.6854     2.1466     1.8062 H       
  37 H37           -9.3241     0.4641     2.2609 H       
  38 H38           -6.1447     3.3126     1.9191 H       
  39 H39           -7.8234     3.8148     1.6060 H       
  40 H40           -7.2982     3.4521     3.2676 H       
  41 H41           -6.5827     2.1092    -1.2691 H       
  42 H42           -7.5251     3.2549    -0.2855 H       
  43 H43           -5.8748     2.8061     0.2079 H       
  44 H44           -9.0542    -0.0425     0.5497 H       
  45 H45           -9.3870     1.5867    -0.0854 H       
  46 H46           -8.4685     0.4196    -1.0664 H       
  47 H47            2.4559     0.9758     0.4873 H       
  48 H48            3.3506    -0.2442    -0.4505 H       
  49 H49            2.2091     0.8477    -1.2708 H       
  50 H50            0.7435    -2.2219     1.3242 H       
  51 H51            2.4947    -2.0368     1.0650 H       
  52 H52            1.6000    -0.8168     2.0027 H       
  53 H53            1.0069    -1.1246    -2.2232 H       
  54 H54            2.1483    -2.2165    -1.4029 H       
  55 H55            0.3971    -2.4016    -1.1436 H       
@<TRIPOS>BOND
   1    1    2 am
   2    1    3 ar
   3    1    4 ar
   4    2   23 1
   5    2    5 1
   6    5    6 1
   7    5   13 1
   8    5   27 1
   9    6    7 1
  10    6   28 1
  11    6   29 1
  12    7    8 1
  13    7   30 1
  14    7   31 1
  15    8    9 ar
  16    8   13 ar
  17    9   10 ar
  18    9   15 1
  19   10   11 ar
  20   10   32 1
  21   11   12 ar
  22   11   33 1
  23   12   13 ar
  24   12   34 1
  25   14   15 1
  26   14   18 1
  27   15   16 1
  28   16   17 1
  29   17   18 1
  30   17   21 1
  31   17   22 1
  32   18   19 1
  33   18   20 1
  34   19   35 1
  35   19   36 1
  36   19   37 1
  37   20   38 1
  38   20   39 1
  39   20   40 1
  40   21   41 1
  41   21   42 1
  42   21   43 1
  43   22   44 1
  44   22   45 1
  45   22   46 1
  46   23   24 1
  47   23   26 1
  48   23   25 1
  49   24   47 1
  50   24   48 1
  51   24   49 1
  52   25   50 1
  53   25   51 1
  54   25   52 1
  55   26   53 1
  56   26   54 1
  57   26   55 1

#	End of record

