#	Name: ASD03330416
#	Creating user name:	WinNT
#	Creation time:	15. 06. 2019 20:37

#	Modifying user name:	WinNT
#	Modification time:	15. 06. 2019 20:37

#	Program:	/corina/corina34_cracker 3.40 0067  02.08.2006

@<TRIPOS>MOLECULE
ASD03330416
  59   61    0    0    0
SMALL
NO_CHARGES


@<TRIPOS>ATOM
   1 C1            -0.2986     2.1307    -0.7626 C.3     
   2 N2            -0.1324     0.6973    -0.4846 N.3     
   3 C3             0.3270    -0.0285    -1.6827 C.3     
   4 C4             1.5140     0.7092    -2.2466 C.2     
   5 N5             1.8438     1.9868    -1.8998 N.pl3   
   6 C6             1.0757     2.7884    -0.9432 C.3     
   7 C7             2.4346     0.2875    -3.1502 C.2     
   8 N8             3.3127     1.2959    -3.3460 N.2     
   9 C9             2.9647     2.3226    -2.5962 C.2     
  10 C10            3.6495     3.5783    -2.5258 C.1     
  11 C11            2.4706    -1.0344    -3.8011 C.2     
  12 O12            1.6200    -1.8638    -3.5408 O.2     
  13 C13            3.4822    -2.6380    -5.3316 C.3     
  14 N14            3.4463    -1.3241    -4.6846 N.am    
  15 C15            3.4021    -3.8384    -3.1418 C.3     
  16 C16            4.2095    -3.6331    -4.4251 C.3     
  17 C17            4.3593    -4.9706    -5.1528 C.3     
  18 C18            4.2107    -2.5308    -6.6464 C.2     
  19 C19            5.5943    -3.0854    -4.0743 C.3     
  20 C20           -1.3752     0.1151     0.0393 C.3     
  21 O21            4.8024    -1.5109    -6.9304 O.2     
  22 N22            4.2048    -3.5683    -7.5066 N.am    
  23 C23            4.9791    -3.4949    -8.7481 C.3     
  24 C24            4.2109     4.6078    -2.4682 C.1     
  25 C25            4.8957     5.8635    -2.3978 C.ar    
  26 C26            4.4217     6.8759    -1.5586 C.ar    
  27 C27            6.0447     6.0808    -3.1637 C.ar    
  28 C28            6.6987     7.2927    -3.0907 C.ar    
  29 C29            6.2202     8.2923    -2.2618 C.ar    
  30 C30            5.0866     8.0826    -1.4962 C.ar    
  31 H31           -0.8835     2.2576    -1.6736 H       
  32 H32           -0.8197     2.6032     0.0700 H       
  33 H33            0.6189    -1.0426    -1.4099 H       
  34 H34           -0.4724    -0.0609    -2.4230 H       
  35 H35            0.9514     3.8007    -1.3278 H       
  36 H36            1.5974     2.8192     0.0133 H       
  37 H37            2.4637    -2.9842    -5.5077 H       
  38 H38            4.1247    -0.6626    -4.8922 H       
  39 H39            2.4155    -4.2286    -3.3918 H       
  40 H40            3.9203    -4.5473    -2.4960 H       
  41 H41            3.2953    -2.8855    -2.6234 H       
  42 H42            3.3753    -5.4143    -5.3039 H       
  43 H43            4.8364    -4.8070    -6.1192 H       
  44 H44            4.9732    -5.6433    -4.5539 H       
  45 H45            6.1125    -3.7944    -3.4285 H       
  46 H46            6.1696    -2.9392    -4.9885 H       
  47 H47            5.4876    -2.1326    -3.5558 H       
  48 H48           -2.1877     0.3005    -0.6633 H       
  49 H49           -1.2461    -0.9593     0.1702 H       
  50 H50           -1.6139     0.5720     0.9996 H       
  51 H51            3.6879    -4.3636    -7.3037 H       
  52 H52            6.0338    -3.3556    -8.5108 H       
  53 H53            4.8524    -4.4199    -9.3106 H       
  54 H54            4.6273    -2.6546    -9.3466 H       
  55 H55            3.5370     6.7138    -0.9608 H       
  56 H56            6.4195     5.3015    -3.8107 H       
  57 H57            7.5867     7.4621    -3.6815 H       
  58 H58            6.7366     9.2394    -2.2088 H       
  59 H59            4.7189     8.8675    -0.8519 H       
@<TRIPOS>BOND
   1    1    2 1
   2    1    6 1
   3    1   31 1
   4    1   32 1
   5    2    3 1
   6    2   20 1
   7    3    4 1
   8    3   33 1
   9    3   34 1
  10    4    5 1
  11    4    7 2
  12    5    6 1
  13    5    9 1
  14    6   35 1
  15    6   36 1
  16    7    8 1
  17    7   11 1
  18    8    9 2
  19    9   10 1
  20   10   24 3
  21   11   12 2
  22   11   14 am
  23   13   14 1
  24   13   18 1
  25   13   16 1
  26   13   37 1
  27   14   38 1
  28   15   16 1
  29   15   39 1
  30   15   40 1
  31   15   41 1
  32   16   19 1
  33   16   17 1
  34   17   42 1
  35   17   43 1
  36   17   44 1
  37   18   21 2
  38   18   22 am
  39   19   45 1
  40   19   46 1
  41   19   47 1
  42   20   48 1
  43   20   49 1
  44   20   50 1
  45   22   23 1
  46   22   51 1
  47   23   52 1
  48   23   53 1
  49   23   54 1
  50   24   25 1
  51   25   26 ar
  52   25   27 ar
  53   26   30 ar
  54   26   55 1
  55   27   28 ar
  56   27   56 1
  57   28   29 ar
  58   28   57 1
  59   29   30 ar
  60   29   58 1
  61   30   59 1

#	End of record

