#	Name: ASD02408133
#	Creating user name:	WinNT
#	Creation time:	15. 06. 2019 20:21

#	Modifying user name:	WinNT
#	Modification time:	15. 06. 2019 20:21

#	Program:	/corina/corina34_cracker 3.40 0067  02.08.2006

@<TRIPOS>MOLECULE
ASD02408133
  46   48    0    0    0
SMALL
NO_CHARGES


@<TRIPOS>ATOM
   1 C1            -1.0526     1.6963     0.2325 C.ar    
   2 C2            -1.2985     0.3351     0.2263 C.ar    
   3 C3             0.2290     2.1684     0.0104 C.ar    
   4 C4             1.2625     1.2797    -0.2175 C.ar    
   5 C5             1.0161    -0.0808    -0.2236 C.ar    
   6 C6            -0.2639    -0.5529    -0.0018 C.ar    
   7 C7             0.4976     3.6512     0.0165 C.3     
   8 C8             0.7279     4.1141     1.4321 C.2     
   9 N9             0.9867     5.4169     1.6571 N.am    
  10 N10            0.6647     3.2404     2.3998 N.2     
  11 C11            0.8602     3.5944     3.6765 C.2     
  12 C12            1.1397     4.9366     3.9823 C.2     
  13 C13            1.1974     5.8662     2.9122 C.2     
  14 N14            0.7877     2.6554     4.6760 N.pl3   
  15 C15            0.1460     2.9752     5.9584 C.3     
  16 O16            1.4362     7.0431     3.1211 O.2     
  17 Cl17          -2.3528     2.8123     0.5118 Cl      
  18 C18           -0.9247     1.9193     6.2508 C.3     
  19 C19           -0.2914     0.5273     6.1948 C.3     
  20 C20            0.2658     0.2746     4.7920 C.3     
  21 C21            1.3450     1.3100     4.4810 C.3     
  22 C22            0.8438     0.4421     7.2170 C.3     
  23 C23           -1.3504    -0.5280     6.5203 C.3     
  24 C24            1.3548     5.3552     5.3347 C.1     
  25 N25            1.5254     5.6872     6.4076 N.1     
  26 H26           -2.2986    -0.0339     0.4000 H       
  27 H27            2.2628     1.6480    -0.3912 H       
  28 H28            1.8241    -0.7749    -0.4018 H       
  29 H29           -0.4558    -1.6157    -0.0070 H       
  30 H30            1.3828     3.8626    -0.5834 H       
  31 H31           -0.3598     4.1775    -0.4029 H       
  32 H32            1.0221     6.0365     0.9117 H       
  33 H33            0.8927     2.9681     6.7525 H       
  34 H34           -0.3182     3.9597     5.8993 H       
  35 H35           -1.3420     2.0895     7.2433 H       
  36 H36           -1.7172     1.9888     5.5057 H       
  37 H37            0.6958    -0.7260     4.7461 H       
  38 H38           -0.5379     0.3595     4.0605 H       
  39 H39            1.6743     1.1957     3.4482 H       
  40 H40            2.1908     1.1696     5.1540 H       
  41 H41            0.4469     0.6209     8.2164 H       
  42 H42            1.2949    -0.5493     7.1773 H       
  43 H43            1.5981     1.1942     6.9858 H       
  44 H44           -2.1596    -0.4673     5.7926 H       
  45 H45           -0.8995    -1.5195     6.4804 H       
  46 H46           -1.7465    -0.3489     7.5199 H       
@<TRIPOS>BOND
   1    1    2 ar
   2    1    3 ar
   3    1   17 1
   4    2    6 ar
   5    2   26 1
   6    3    4 ar
   7    3    7 1
   8    4    5 ar
   9    4   27 1
  10    5    6 ar
  11    5   28 1
  12    6   29 1
  13    7    8 1
  14    7   30 1
  15    7   31 1
  16    8    9 1
  17    8   10 2
  18    9   13 am
  19    9   32 1
  20   10   11 1
  21   11   12 2
  22   11   14 1
  23   12   13 1
  24   12   24 1
  25   13   16 2
  26   14   15 1
  27   14   21 1
  28   15   18 1
  29   15   33 1
  30   15   34 1
  31   18   19 1
  32   18   35 1
  33   18   36 1
  34   19   20 1
  35   19   22 1
  36   19   23 1
  37   20   21 1
  38   20   37 1
  39   20   38 1
  40   21   39 1
  41   21   40 1
  42   22   41 1
  43   22   42 1
  44   22   43 1
  45   23   44 1
  46   23   45 1
  47   23   46 1
  48   24   25 3

#	End of record

