#	Name: ASD03091150
#	Creating user name:	WinNT
#	Creation time:	15. 06. 2019 20:30

#	Modifying user name:	WinNT
#	Modification time:	15. 06. 2019 20:30

#	Program:	/corina/corina34_cracker 3.40 0067  02.08.2006

@<TRIPOS>MOLECULE
ASD03091150
  38   40    0    0    0
SMALL
NO_CHARGES


@<TRIPOS>ATOM
   1 C1            -0.4308     1.1744    -2.0893 C.2     
   2 C2            -0.3526    -0.0593    -1.2802 C.ar    
   3 C3             0.8577    -0.4379    -0.6949 C.ar    
   4 C4             0.9280    -1.5902     0.0606 C.ar    
   5 C5            -0.1966    -2.3739     0.2411 C.ar    
   6 C6            -1.4059    -2.0062    -0.3369 C.ar    
   7 C7            -1.4887    -0.8470    -1.0933 C.ar    
   8 O8             0.3014     1.3197    -3.0476 O.2     
   9 O9            -1.3180     2.1358    -1.7676 O.3     
  10 N10            2.0651     0.3968    -0.8857 N.pl3   
  11 O11            3.1454     0.0069    -0.4801 O.2     
  12 O12            1.9784     1.4737    -1.4482 O.2     
  13 C13           -2.1593    -4.2305     0.0836 C.3     
  14 N14           -2.5394    -2.8018    -0.1514 N.3     
  15 C15           -3.3942    -2.7996    -1.3630 C.3     
  16 C16           -3.5194    -4.2994    -1.7739 C.3     
  17 N17           -2.1608    -4.6499    -2.2956 N.3     
  18 C18           -1.2460    -4.5860    -1.1303 C.3     
  19 C19           -3.4764    -4.9669    -0.3527 C.3     
  20 C20           -1.7420    -3.7118    -3.3457 C.3     
  21 C21           -1.3393     3.3206    -2.6067 C.3     
  22 H22            1.8648    -1.8812     0.5123 H       
  23 H23           -0.1350    -3.2751     0.8331 H       
  24 H24           -2.4285    -0.5571    -1.5396 H       
  25 H25           -1.7615    -4.4654     1.0708 H       
  26 H26           -4.3764    -2.3870    -1.1325 H       
  27 H27           -2.9197    -2.2272    -2.1600 H       
  28 H28           -4.3613    -4.5538    -2.4178 H       
  29 H29           -0.4961    -3.8093    -1.2800 H       
  30 H30           -0.7658    -5.5517    -0.9727 H       
  31 H31           -3.3485    -6.0480    -0.4062 H       
  32 H32           -4.3312    -4.6866     0.2629 H       
  33 H33           -1.5438    -2.7357    -2.9029 H       
  34 H34           -0.8366    -4.0839    -3.8252 H       
  35 H35           -2.5348    -3.6199    -4.0880 H       
  36 H36           -0.3621     3.8028    -2.5794 H       
  37 H37           -1.5752     3.0355    -3.6320 H       
  38 H38           -2.0965     4.0129    -2.2387 H       
@<TRIPOS>BOND
   1    1    2 1
   2    1    8 2
   3    1    9 1
   4    2    3 ar
   5    2    7 ar
   6    3    4 ar
   7    3   10 1
   8    4    5 ar
   9    4   22 1
  10    5    6 ar
  11    5   23 1
  12    6    7 ar
  13    6   14 1
  14    7   24 1
  15    9   21 1
  16   10   11 2
  17   10   12 2
  18   13   14 1
  19   13   18 1
  20   13   19 1
  21   13   25 1
  22   14   15 1
  23   15   16 1
  24   15   26 1
  25   15   27 1
  26   16   17 1
  27   16   19 1
  28   16   28 1
  29   17   18 1
  30   17   20 1
  31   18   29 1
  32   18   30 1
  33   19   31 1
  34   19   32 1
  35   20   33 1
  36   20   34 1
  37   20   35 1
  38   21   36 1
  39   21   37 1
  40   21   38 1

#	End of record

