#	Name: ASD01810522
#	Creating user name:	WinNT
#	Creation time:	15. 06. 2019 19:24

#	Modifying user name:	WinNT
#	Modification time:	15. 06. 2019 19:24

#	Program:	/corina/corina34_cracker 3.40 0067  02.08.2006

@<TRIPOS>MOLECULE
ASD01810522
 104  109    0    0    0
SMALL
NO_CHARGES


@<TRIPOS>ATOM
   1 S1             1.4474     1.8230    -2.7338 S.3     
   2 C2             2.0622     0.6834    -1.4364 C.3     
   3 N3             1.0511    -0.3742    -1.3998 N.am    
   4 C4            -0.1243    -0.1286    -1.9714 C.2     
   5 C5            -0.2912     1.2381    -2.6064 C.3     
   6 C6             3.4224     0.1309    -1.8415 C.3     
   7 C7             3.9196    -0.8416    -0.7659 C.3     
   8 N8             3.8864    -0.1617     0.5362 N.am    
   9 C9             2.6284     0.4525     0.9826 C.3     
  10 C10            2.1395     1.4172    -0.1039 C.3     
  11 C11           -0.9292     1.1207    -3.9921 C.3     
  12 C12           -1.1969     2.5197    -4.5505 C.3     
  13 O13           -1.0142    -0.9526    -1.9837 O.2     
  14 C14            1.3250    -1.6609    -0.7552 C.3     
  15 C15            3.2066    -6.2383    -1.4457 C.3     
  16 O16            3.7028    -7.1615    -2.4170 O.3     
  17 C17            4.1121    -8.3749    -1.9623 C.ar    
  18 C18            4.5958    -9.2977    -2.8457 C.ar    
  19 C19            4.0379    -8.6603    -0.5956 C.ar    
  20 C20            4.4399    -9.8656    -0.1103 C.ar    
  21 C21            4.9376   -10.8410    -0.9914 C.ar    
  22 C22            5.0191   -10.5519    -2.3770 C.ar    
  23 C23            5.3611   -12.0969    -0.5242 C.ar    
  24 C24            5.8374   -13.0181    -1.4055 C.ar    
  25 C25            5.9129   -12.7358    -2.7683 C.ar    
  26 C26            5.5168   -11.5289    -3.2568 C.ar    
  27 C27            6.2905   -14.3637    -0.9002 C.3     
  28 N28            5.1326   -15.2518    -0.7705 N.pl3   
  29 C29            4.4860   -15.3195     0.4453 C.ar    
  30 C30            3.3721   -16.1590     0.6096 C.ar    
  31 C31            2.9144   -16.9597    -0.5414 C.2     
  32 C32            3.6672   -16.8212    -1.7985 C.2     
  33 C33            4.7445   -15.9588    -1.8390 C.2     
  34 C34            4.9284   -14.5572     1.5265 C.ar    
  35 C35            4.2726   -14.6347     2.7372 C.ar    
  36 C36            3.1723   -15.4656     2.8951 C.ar    
  37 C37            2.7193   -16.2269     1.8409 C.ar    
  38 F38            5.9985   -13.7442     1.3879 F       
  39 O39            1.9541   -17.7047    -0.4550 O.2     
  40 C40            3.2759   -17.5848    -2.9918 C.2     
  41 O41            3.9048   -17.4625    -4.0249 O.2     
  42 O42            4.9462     0.5233     2.4987 O.3     
  43 C43            6.1723     0.5478     3.2761 C.3     
  44 C44            7.2678     1.2580     2.4784 C.3     
  45 C45            5.9296     1.2969     4.5879 C.3     
  46 C46            6.6115    -0.8857     3.5811 C.3     
  47 C47            4.9900    -0.1028     1.3076 C.2     
  48 O48            6.0246    -0.6148     0.9280 O.2     
  49 C49            1.8563    -2.6494    -1.7952 C.3     
  50 C50            2.2658    -3.9496    -1.1005 C.3     
  51 C51            2.7971    -4.9381    -2.1404 C.3     
  52 O52            2.2196   -18.4207    -2.9407 O.3     
  53 C53            0.6730   -20.0345    -3.9071 C.3     
  54 C54            1.8906   -19.1424    -4.1569 C.3     
  55 H55           -0.8757     1.8960    -1.9634 H       
  56 H56            3.3327    -0.3941    -2.7926 H       
  57 H57            4.1319     0.9518    -1.9451 H       
  58 H58            3.2717    -1.7177    -0.7374 H       
  59 H59            4.9411    -1.1468    -0.9930 H       
  60 H60            1.8806    -0.3234     1.1461 H       
  61 H61            2.7980     1.0011     1.9092 H       
  62 H62            2.8352     2.2520    -0.1885 H       
  63 H63            1.1515     1.7931     0.1618 H       
  64 H64           -0.2529     0.5864    -4.6594 H       
  65 H65           -1.8693     0.5745    -3.9141 H       
  66 H66           -1.8732     3.0540    -3.8832 H       
  67 H67           -0.2568     3.0658    -4.6285 H       
  68 H68           -1.6515     2.4360    -5.5377 H       
  69 H69            2.0695    -1.5233     0.0289 H       
  70 H70            0.4057    -2.0517    -0.3189 H       
  71 H71            2.3410    -6.6699    -0.9431 H       
  72 H72            3.9854    -6.0288    -0.7125 H       
  73 H73            4.6521    -9.0642    -3.8986 H       
  74 H74            3.6563    -7.9130     0.0844 H       
  75 H75            4.3773   -10.0723     0.9479 H       
  76 H76            5.3092   -12.3297     0.5292 H       
  77 H77            6.2951   -13.4845    -3.4463 H       
  78 H78            5.5809   -11.3242    -4.3152 H       
  79 H79            7.0023   -14.7952    -1.6040 H       
  80 H80            6.7679   -14.2446     0.0724 H       
  81 H81            5.2969   -15.8565    -2.7614 H       
  82 H82            4.6192   -14.0429     3.5714 H       
  83 H83            2.6693   -15.5159     3.8495 H       
  84 H84            1.8628   -16.8727     1.9663 H       
  85 H85            6.9550     2.2793     2.2611 H       
  86 H86            8.1883     1.2764     3.0619 H       
  87 H87            7.4407     0.7243     1.5438 H       
  88 H88            5.1492     0.7909     5.1562 H       
  89 H89            6.8501     1.3152     5.1714 H       
  90 H90            5.6168     2.3181     4.3706 H       
  91 H91            6.7844    -1.4194     2.6465 H       
  92 H92            7.5319    -0.8674     4.1646 H       
  93 H93            5.8310    -1.3917     4.1494 H       
  94 H94            1.0775    -2.8589    -2.5285 H       
  95 H95            2.7218    -2.2178    -2.2978 H       
  96 H96            3.0446    -3.7401    -0.3672 H       
  97 H97            1.4002    -4.3812    -0.5979 H       
  98 H98            3.6626    -4.5065    -2.6430 H       
  99 H99            2.0183    -5.1476    -2.8737 H       
 100 H100           0.9003   -20.7456    -3.1128 H       
 101 H101          -0.1749   -19.4172    -3.6103 H       
 102 H102           0.4260   -20.5763    -4.8201 H       
 103 H103           1.6632   -18.4314    -4.9511 H       
 104 H104           2.7385   -19.7597    -4.4537 H       
@<TRIPOS>BOND
   1    1    2 1
   2    1    5 1
   3    2    3 1
   4    2    6 1
   5    2   10 1
   6    3    4 am
   7    3   14 1
   8    4    5 1
   9    4   13 2
  10    5   11 1
  11    5   55 1
  12    6    7 1
  13    6   56 1
  14    6   57 1
  15    7    8 1
  16    7   58 1
  17    7   59 1
  18    8   47 am
  19    8    9 1
  20    9   10 1
  21    9   60 1
  22    9   61 1
  23   10   62 1
  24   10   63 1
  25   11   12 1
  26   11   64 1
  27   11   65 1
  28   12   66 1
  29   12   67 1
  30   12   68 1
  31   14   49 1
  32   14   69 1
  33   14   70 1
  34   15   51 1
  35   15   16 1
  36   15   71 1
  37   15   72 1
  38   16   17 1
  39   17   18 ar
  40   17   19 ar
  41   18   22 ar
  42   18   73 1
  43   19   20 ar
  44   19   74 1
  45   20   21 ar
  46   20   75 1
  47   21   22 ar
  48   21   23 ar
  49   22   26 ar
  50   23   24 ar
  51   23   76 1
  52   24   25 ar
  53   24   27 1
  54   25   26 ar
  55   25   77 1
  56   26   78 1
  57   27   28 1
  58   27   79 1
  59   27   80 1
  60   28   29 1
  61   28   33 1
  62   29   30 ar
  63   29   34 ar
  64   30   31 1
  65   30   37 ar
  66   31   32 1
  67   31   39 2
  68   32   33 2
  69   32   40 1
  70   33   81 1
  71   34   35 ar
  72   34   38 1
  73   35   36 ar
  74   35   82 1
  75   36   37 ar
  76   36   83 1
  77   37   84 1
  78   40   52 1
  79   40   41 2
  80   42   43 1
  81   42   47 1
  82   43   44 1
  83   43   45 1
  84   43   46 1
  85   44   85 1
  86   44   86 1
  87   44   87 1
  88   45   88 1
  89   45   89 1
  90   45   90 1
  91   46   91 1
  92   46   92 1
  93   46   93 1
  94   47   48 2
  95   49   50 1
  96   49   94 1
  97   49   95 1
  98   50   51 1
  99   50   96 1
 100   50   97 1
 101   51   98 1
 102   51   99 1
 103   52   54 1
 104   53   54 1
 105   53  100 1
 106   53  101 1
 107   53  102 1
 108   54  103 1
 109   54  104 1

#	End of record

