#	Name: ASD03240691
#	Creating user name:	WinNT
#	Creation time:	15. 06. 2019 20:35

#	Modifying user name:	WinNT
#	Modification time:	15. 06. 2019 20:35

#	Program:	/corina/corina34_cracker 3.40 0067  02.08.2006

@<TRIPOS>MOLECULE
ASD03240691
  62   68    0    0    0
SMALL
NO_CHARGES


@<TRIPOS>ATOM
   1 C1             0.2536     0.9507    -1.5951 C.2     
   2 N2             0.3042    -0.3908    -1.5150 N.2     
   3 C3             1.4260    -1.0319    -1.3110 C.2     
   4 C4             2.6637    -0.2687    -1.1654 C.ar    
   5 C5             2.6040     1.1388    -1.2505 C.ar    
   6 N6             1.3732     1.7276    -1.4681 N.pl3   
   7 C7             3.8937    -0.8970    -0.9453 C.ar    
   8 C8             5.0222    -0.0933    -0.8179 C.ar    
   9 C9             4.8835     1.3048    -0.9145 C.ar    
  10 N10            3.7012     1.8643    -1.1245 N.ar    
  11 N11            0.9837     3.0661    -1.5993 N.2     
  12 C12           -0.3119     3.1118    -1.7973 C.2     
  13 C13           -0.8129     1.8161    -1.7971 C.2     
  14 C14           -1.1256     4.3660    -1.9872 C.3     
  15 F15           -0.2717     5.4732    -2.0344 F       
  16 F16           -1.8435     4.2793    -3.1848 F       
  17 F17           -2.0170     4.5097    -0.9185 F       
  18 C18            6.3540    -0.7010    -0.5830 C.ar    
  19 C19            6.5239    -1.6439     0.4295 C.ar    
  20 C20            7.7658    -2.2067     0.6433 C.ar    
  21 C21            8.8408    -1.8364    -0.1447 C.ar    
  22 C22            8.6781    -0.9009    -1.1506 C.ar    
  23 C23            7.4396    -0.3360    -1.3776 C.ar    
  24 C24            6.0813     2.1651    -0.7797 C.ar    
  25 C25            6.1891     3.3376    -1.5276 C.ar    
  26 C26            7.3076     4.1350    -1.3976 C.ar    
  27 C27            8.3209     3.7737    -0.5277 C.ar    
  28 C28            8.2199     2.6120     0.2168 C.ar    
  29 C29            7.1038     1.8092     0.0999 C.ar    
  30 C30            9.5400     4.6490    -0.3910 C.3     
  31 C31           10.1863     4.5916     1.0032 C.3     
  32 C32           11.5470     4.6098     0.2869 C.3     
  33 C33           10.8271     4.0008    -0.9279 C.3     
  34 O34           12.5150     3.7383     0.8747 O.3     
  35 C35           12.0885     6.0185     0.0356 C.3     
  36 C36           12.4436     6.8673     1.2581 C.3     
  37 C37           13.5548     6.2840     0.3828 C.3     
  38 N38            9.3206     6.0160    -0.8820 N.3     
  39 H39            1.4372    -2.1102    -1.2507 H       
  40 H40            3.9652    -1.9724    -0.8760 H       
  41 H41           -1.8463     1.5328    -1.9323 H       
  42 H42            5.6855    -1.9333     1.0457 H       
  43 H43            7.8987    -2.9373     1.4274 H       
  44 H44            9.8109    -2.2791     0.0265 H       
  45 H45            9.5210    -0.6153    -1.7624 H       
  46 H46            7.3127     0.3910    -2.1661 H       
  47 H47            5.3988     3.6205    -2.2072 H       
  48 H48            7.3924     5.0429    -1.9764 H       
  49 H49            9.0142     2.3353     0.8941 H       
  50 H50            7.0240     0.9049     0.6849 H       
  51 H51            9.9994     5.4789     1.6080 H       
  52 H52            9.9873     3.6634     1.5389 H       
  53 H53           10.8032     2.9111    -0.9202 H       
  54 H54           11.1574     4.4112    -1.8821 H       
  55 H55           12.1968     2.8366     1.0182 H       
  56 H56           11.6752     6.5333    -0.8317 H       
  57 H57           12.2642     7.9406     1.1948 H       
  58 H58           12.2914     6.4221     2.2413 H       
  59 H59           14.1336     5.4551     0.7902 H       
  60 H60           14.1064     6.9735    -0.2562 H       
  61 H61            8.8960     6.0076    -1.7973 H       
  62 H62            8.7646     6.5493    -0.2304 H       
@<TRIPOS>BOND
   1    1    2 1
   2    1    6 1
   3    1   13 2
   4    2    3 2
   5    3    4 1
   6    3   39 1
   7    4    5 ar
   8    4    7 ar
   9    5    6 1
  10    5   10 ar
  11    6   11 1
  12    7    8 ar
  13    7   40 1
  14    8    9 ar
  15    8   18 1
  16    9   10 ar
  17    9   24 1
  18   11   12 2
  19   12   13 1
  20   12   14 1
  21   13   41 1
  22   14   15 1
  23   14   16 1
  24   14   17 1
  25   18   19 ar
  26   18   23 ar
  27   19   20 ar
  28   19   42 1
  29   20   21 ar
  30   20   43 1
  31   21   22 ar
  32   21   44 1
  33   22   23 ar
  34   22   45 1
  35   23   46 1
  36   24   25 ar
  37   24   29 ar
  38   25   26 ar
  39   25   47 1
  40   26   27 ar
  41   26   48 1
  42   27   28 ar
  43   27   30 1
  44   28   29 ar
  45   28   49 1
  46   29   50 1
  47   30   31 1
  48   30   33 1
  49   30   38 1
  50   31   32 1
  51   31   51 1
  52   31   52 1
  53   32   33 1
  54   32   34 1
  55   32   35 1
  56   33   53 1
  57   33   54 1
  58   34   55 1
  59   35   36 1
  60   35   37 1
  61   35   56 1
  62   36   37 1
  63   36   57 1
  64   36   58 1
  65   37   59 1
  66   37   60 1
  67   38   61 1
  68   38   62 1

#	End of record

