#	Name: ASD00170715
#	Creating user name:	WinNT
#	Creation time:	15. 06. 2019 18:32

#	Modifying user name:	WinNT
#	Modification time:	15. 06. 2019 18:32

#	Program:	/corina/corina34_cracker 3.40 0067  02.08.2006

@<TRIPOS>MOLECULE
ASD00170715
  36   38    0    0    0
SMALL
NO_CHARGES


@<TRIPOS>ATOM
   1 C1             0.0514     1.4462     0.3896 C.2     
   2 C2             0.0593    -0.0249     0.3027 C.ar    
   3 C3             1.2726    -0.7126     0.1884 C.ar    
   4 C4             1.2798    -2.0753     0.1083 C.ar    
   5 C5             0.0742    -2.7843     0.1404 C.ar    
   6 C6            -1.1390    -2.0969     0.2542 C.ar    
   7 C7            -1.1461    -0.7346     0.3401 C.ar    
   8 O8             1.0986     2.0621     0.3621 O.2     
   9 O9            -1.1176     2.1088     0.4941 O.3     
  10 C10            0.0822    -4.2561     0.0539 C.2     
  11 C11           -1.0128    -5.0320     0.0754 C.2     
  12 C12           -0.7372    -6.3973    -0.0212 C.2     
  13 C13            0.6091    -6.6840    -0.1201 C.2     
  14 S14            1.5253    -5.2452    -0.0996 S.3     
  15 C15           -1.7778    -7.4272    -0.0179 C.2     
  16 C16           -2.1550    -8.1015    -1.2791 C.ar    
  17 C17           -3.0639    -9.1608    -1.2631 C.ar    
  18 C18           -3.4114    -9.7854    -2.4429 C.ar    
  19 C19           -2.8611    -9.3641    -3.6405 C.ar    
  20 C20           -1.9596    -8.3147    -3.6634 C.ar    
  21 C21           -1.6080    -7.6777    -2.4914 C.ar    
  22 O22           -2.3327    -7.7286     1.0230 O.2     
  23 N23            1.1375    -7.9511    -0.2260 N.pl3   
  24 H24            2.2033    -0.1652     0.1632 H       
  25 H25            2.2162    -2.6060     0.0198 H       
  26 H26           -2.0696    -2.6444     0.2783 H       
  27 H27           -2.0824    -0.2042     0.4324 H       
  28 H28           -1.0722     3.0732     0.5483 H       
  29 H29           -2.0143    -4.6368     0.1596 H       
  30 H30           -3.4939    -9.4909    -0.3289 H       
  31 H31           -4.1142   -10.6054    -2.4319 H       
  32 H32           -3.1362    -9.8567    -4.5614 H       
  33 H33           -1.5334    -7.9908    -4.6015 H       
  34 H34           -0.9076    -6.8558    -2.5111 H       
  35 H35            0.5495    -8.7226    -0.2348 H       
  36 H36            2.0976    -8.0723    -0.2917 H       
@<TRIPOS>BOND
   1    1    2 1
   2    1    8 2
   3    1    9 1
   4    2    3 ar
   5    2    7 ar
   6    3    4 ar
   7    3   24 1
   8    4    5 ar
   9    4   25 1
  10    5    6 ar
  11    5   10 1
  12    6    7 ar
  13    6   26 1
  14    7   27 1
  15    9   28 1
  16   10   11 2
  17   10   14 1
  18   11   12 1
  19   11   29 1
  20   12   13 2
  21   12   15 1
  22   13   14 1
  23   13   23 1
  24   15   16 1
  25   15   22 2
  26   16   17 ar
  27   16   21 ar
  28   17   18 ar
  29   17   30 1
  30   18   19 ar
  31   18   31 1
  32   19   20 ar
  33   19   32 1
  34   20   21 ar
  35   20   33 1
  36   21   34 1
  37   23   35 1
  38   23   36 1

#	End of record

