#	Name: ASD01911081
#	Creating user name:	WinNT
#	Creation time:	15. 06. 2019 19:57

#	Modifying user name:	WinNT
#	Modification time:	15. 06. 2019 19:57

#	Program:	/corina/corina34_cracker 3.40 0067  02.08.2006

@<TRIPOS>MOLECULE
ASD01911081
  47   50    0    0    0
SMALL
NO_CHARGES


@<TRIPOS>ATOM
   1 C1            -1.0384     1.1504    -0.7998 C.ar    
   2 C2            -0.5715    -0.0998    -0.4395 C.ar    
   3 C3             0.7702    -0.2829    -0.1616 C.ar    
   4 C4             1.6451     0.7841    -0.2444 C.ar    
   5 C5             1.1784     2.0341    -0.6056 C.ar    
   6 C6            -0.1636     2.2175    -0.8822 C.ar    
   7 C7             3.1076     0.5847     0.0596 C.3     
   8 C8             3.8375     0.2134    -1.2055 C.2     
   9 N9             4.3954     1.0403    -2.0566 N.2     
  10 C10            4.9218     0.2658    -3.0219 C.2     
  11 N11            4.6621    -0.9698    -2.7143 N.2     
  12 O12            4.0449    -1.0219    -1.6713 O.3     
  13 C13            5.6743     0.7430    -4.2373 C.3     
  14 C14            7.0874     0.1556    -4.2265 C.3     
  15 C15            7.8631     0.6658    -5.4430 C.3     
  16 C16            7.1580     0.2059    -6.7229 C.3     
  17 N17            5.7563     0.6435    -6.6740 N.am    
  18 C18            4.9444     0.2839    -5.5034 C.3     
  19 C19            5.2254     1.3612    -7.6837 C.2     
  20 O20            4.0468     1.6584    -7.6641 O.2     
  21 C21            6.0757     1.7866    -8.8144 C.ar    
  22 C22            6.8783     0.8553    -9.4767 C.ar    
  23 C23            7.6698     1.2576   -10.5310 C.ar    
  24 C24            7.6700     2.5842   -10.9342 C.ar    
  25 C25            6.8754     3.5131   -10.2798 C.ar    
  26 C26            6.0755     3.1203    -9.2283 C.ar    
  27 F27            8.4477     2.9732   -11.9682 F       
  28 H28           -2.0858     1.2925    -1.0213 H       
  29 H29           -1.2551    -0.9335    -0.3748 H       
  30 H30            1.1348    -1.2596     0.1207 H       
  31 H31            1.8618     2.8679    -0.6697 H       
  32 H32           -0.5282     3.1943    -1.1641 H       
  33 H33            3.5243     1.5081     0.4618 H       
  34 H34            3.2207    -0.2144     0.7922 H       
  35 H35            5.7326     1.8314    -4.2248 H       
  36 H36            7.6005     0.4607    -3.3145 H       
  37 H37            7.0287    -0.9322    -4.2633 H       
  38 H38            7.9009     1.7549    -5.4198 H       
  39 H39            8.8768     0.2657    -5.4222 H       
  40 H40            7.6489     0.6483    -7.5897 H       
  41 H41            7.1992    -0.8812    -6.7923 H       
  42 H42            4.8051    -0.7967    -5.4734 H       
  43 H43            3.9747     0.7779    -5.5657 H       
  44 H44            6.8790    -0.1782    -9.1633 H       
  45 H45            8.2911     0.5382   -11.0438 H       
  46 H46            6.8797     4.5452   -10.5976 H       
  47 H47            5.4566     3.8446    -8.7194 H       
@<TRIPOS>BOND
   1    1    2 ar
   2    1    6 ar
   3    1   28 1
   4    2    3 ar
   5    2   29 1
   6    3    4 ar
   7    3   30 1
   8    4    5 ar
   9    4    7 1
  10    5    6 ar
  11    5   31 1
  12    6   32 1
  13    7    8 1
  14    7   33 1
  15    7   34 1
  16    8    9 2
  17    8   12 1
  18    9   10 1
  19   10   11 2
  20   10   13 1
  21   11   12 1
  22   13   14 1
  23   13   18 1
  24   13   35 1
  25   14   15 1
  26   14   36 1
  27   14   37 1
  28   15   16 1
  29   15   38 1
  30   15   39 1
  31   16   17 1
  32   16   40 1
  33   16   41 1
  34   17   18 1
  35   17   19 am
  36   18   42 1
  37   18   43 1
  38   19   20 2
  39   19   21 1
  40   21   22 ar
  41   21   26 ar
  42   22   23 ar
  43   22   44 1
  44   23   24 ar
  45   23   45 1
  46   24   25 ar
  47   24   27 1
  48   25   26 ar
  49   25   46 1
  50   26   47 1

#	End of record

