#	Name: ASD01914126
#	Creating user name:	WinNT
#	Creation time:	15. 06. 2019 20:02

#	Modifying user name:	WinNT
#	Modification time:	15. 06. 2019 20:02

#	Program:	/corina/corina34_cracker 3.40 0067  02.08.2006

@<TRIPOS>MOLECULE
ASD01914126
  48   51    0    0    0
SMALL
NO_CHARGES


@<TRIPOS>ATOM
   1 C1            -0.9688     1.6469    -0.2080 C.2     
   2 C2            -0.7871     0.1896    -0.2005 C.2     
   3 N3            -1.7409    -0.7273    -0.1257 N.2     
   4 C4            -1.1059    -1.9083    -0.1516 C.2     
   5 N5             0.1698    -1.6694    -0.2385 N.2     
   6 O6             0.3784    -0.4752    -0.2740 O.3     
   7 C7            -1.7538    -3.2675    -0.0906 C.3     
   8 C8            -1.4060    -4.0564    -1.3551 C.3     
   9 C9            -2.0902    -5.4246    -1.3092 C.3     
  10 C10           -1.5784    -6.2065    -0.0953 C.3     
  11 N11           -1.7778    -5.3914     1.1107 N.am    
  12 C12           -1.2381    -4.0251     1.1370 C.3     
  13 C13           -0.0886    -6.5078    -0.2703 C.3     
  14 C14           -2.4430    -5.8875     2.1726 C.2     
  15 C15           -2.5239    -5.1068     3.4241 C.ar    
  16 C16           -3.7234    -5.0476     4.1368 C.ar    
  17 C17           -3.7934    -4.3176     5.3039 C.ar    
  18 C18           -2.6756    -3.6430     5.7707 C.ar    
  19 C19           -1.4822    -3.6981     5.0668 C.ar    
  20 C20           -1.3995    -4.4302     3.9018 C.ar    
  21 O21           -2.9765    -6.9775     2.1006 O.2     
  22 C22            0.0252     2.5829    -0.2856 C.2     
  23 C23           -0.5866     3.8421    -0.2623 C.2     
  24 C24           -1.9233     3.6506    -0.1720 C.2     
  25 N25           -2.1690     2.3146    -0.1442 N.pl3   
  26 C26            0.1176     5.1730    -0.3257 C.3     
  27 F27           -2.7495    -2.9289     6.9152 F       
  28 H28           -2.8353    -3.1522    -0.0197 H       
  29 H29           -1.7501    -3.5075    -2.2317 H       
  30 H30           -0.3260    -4.1923    -1.4128 H       
  31 H31           -3.1687    -5.2894    -1.2265 H       
  32 H32           -1.8611    -5.9767    -2.2206 H       
  33 H33           -2.1335    -7.1399    -0.0014 H       
  34 H34           -0.1490    -4.0618     1.1129 H       
  35 H35           -1.5687    -3.5191     2.0441 H       
  36 H36            0.4635    -5.5721    -0.3575 H       
  37 H37            0.2735    -7.0641     0.5942 H       
  38 H38            0.0585    -7.1019    -1.1723 H       
  39 H39           -4.5947    -5.5724     3.7739 H       
  40 H40           -4.7206    -4.2708     5.8556 H       
  41 H41           -0.6146    -3.1704     5.4346 H       
  42 H42           -0.4695    -4.4727     3.3545 H       
  43 H43            1.0852     2.3871    -0.3522 H       
  44 H44           -2.6703     4.4296    -0.1331 H       
  45 H45           -3.0443     1.9010    -0.0826 H       
  46 H46            0.2205     5.4804    -1.3664 H       
  47 H47           -0.4638     5.9180     0.2174 H       
  48 H48            1.1056     5.0832     0.1260 H       
@<TRIPOS>BOND
   1    1    2 1
   2    1   22 2
   3    1   25 1
   4    2    3 2
   5    2    6 1
   6    3    4 1
   7    4    5 2
   8    4    7 1
   9    5    6 1
  10    7    8 1
  11    7   12 1
  12    7   28 1
  13    8    9 1
  14    8   29 1
  15    8   30 1
  16    9   10 1
  17    9   31 1
  18    9   32 1
  19   10   11 1
  20   10   13 1
  21   10   33 1
  22   11   12 1
  23   11   14 am
  24   12   34 1
  25   12   35 1
  26   13   36 1
  27   13   37 1
  28   13   38 1
  29   14   15 1
  30   14   21 2
  31   15   16 ar
  32   15   20 ar
  33   16   17 ar
  34   16   39 1
  35   17   18 ar
  36   17   40 1
  37   18   19 ar
  38   18   27 1
  39   19   20 ar
  40   19   41 1
  41   20   42 1
  42   22   23 1
  43   22   43 1
  44   23   24 2
  45   23   26 1
  46   24   25 1
  47   24   44 1
  48   25   45 1
  49   26   46 1
  50   26   47 1
  51   26   48 1

#	End of record

