#	Name: ASD01000101
#	Creating user name:	WinNT
#	Creation time:	15. 06. 2019 18:54

#	Modifying user name:	WinNT
#	Modification time:	15. 06. 2019 18:54

#	Program:	/corina/corina34_cracker 3.40 0067  02.08.2006

@<TRIPOS>MOLECULE
ASD01000101
  49   51    0    0    0
SMALL
NO_CHARGES


@<TRIPOS>ATOM
   1 C1             3.0108     1.4372     2.1782 C.3     
   2 C2            -0.6848    -5.9457     6.3164 C.ar    
   3 C3            -3.0314    -5.0817    -0.1938 C.ar    
   4 C4            -1.7194    -5.6117     5.4627 C.ar    
   5 C5             0.6250    -5.7183     5.9372 C.ar    
   6 C6            -2.3419    -6.1139     0.4146 C.ar    
   7 C7            -2.6850    -3.7696     0.0693 C.ar    
   8 C8            -0.6169    -0.6027     3.2908 C.ar    
   9 C9             0.5541     0.0281     2.9283 C.ar    
  10 C10           -1.4443    -5.0519     4.2291 C.ar    
  11 C11            0.9001    -5.1589     4.7034 C.ar    
  12 C12           -1.3073    -5.8338     1.2875 C.ar    
  13 C13           -1.6506    -3.4895     0.9425 C.ar    
  14 C14           -0.7397    -1.9746     3.1528 C.ar    
  15 C15            1.4875    -2.1071     2.2826 C.ar    
  16 C16            3.1317    -4.6073    -0.4610 C.3     
  17 C17            1.7962    -4.2241     0.1797 C.3     
  18 C18            2.8728    -0.0561     2.0296 C.2     
  19 C19            1.6195    -0.7218     2.4194 C.ar    
  20 C20           -0.1345    -4.8257     3.8493 C.ar    
  21 C21           -0.9618    -4.5217     1.5516 C.ar    
  22 C22            0.3097    -2.7234     2.6497 C.ar    
  23 C23            0.1655    -4.2164     2.5040 C.3     
  24 N24            3.2014    -4.0497    -1.8183 N.3     
  25 O25            3.7945    -0.7092     1.5888 O.2     
  26 S26            1.7101    -4.9126     1.8558 S.3     
  27 H27            3.4084     1.6688     3.1663 H       
  28 H28            3.6899     1.8171     1.4150 H       
  29 H29            2.0337     1.9058     2.0608 H       
  30 H30           -0.8999    -6.3789     7.2820 H       
  31 H31           -3.8368    -5.3006    -0.8792 H       
  32 H32           -2.7427    -5.7897     5.7588 H       
  33 H33            1.4333    -5.9790     6.6043 H       
  34 H34           -2.6128    -7.1390     0.2094 H       
  35 H35           -3.2234    -2.9632    -0.4064 H       
  36 H36           -1.4389    -0.0257     3.6881 H       
  37 H37            0.6484     1.0985     3.0366 H       
  38 H38           -2.2526    -4.7916     3.5618 H       
  39 H39            1.9234    -4.9819     4.4068 H       
  40 H40           -0.7690    -6.6402     1.7634 H       
  41 H41           -1.3805    -2.4644     1.1486 H       
  42 H42           -1.6596    -2.4630     3.4385 H       
  43 H43            2.3056    -2.6928     1.8901 H       
  44 H44            3.9500    -4.2081     0.1382 H       
  45 H45            3.2131    -5.6931    -0.5096 H       
  46 H46            1.7148    -3.1383     0.2283 H       
  47 H47            0.9779    -4.6233    -0.4195 H       
  48 H48            3.0638    -3.0502    -1.8062 H       
  49 H49            4.0749    -4.2891    -2.2631 H       
@<TRIPOS>BOND
   1    1   18 1
   2    1   27 1
   3    1   28 1
   4    1   29 1
   5    2    4 ar
   6    2    5 ar
   7    2   30 1
   8    3    6 ar
   9    3    7 ar
  10    3   31 1
  11    4   10 ar
  12    4   32 1
  13    5   11 ar
  14    5   33 1
  15    6   12 ar
  16    6   34 1
  17    7   13 ar
  18    7   35 1
  19    8    9 ar
  20    8   14 ar
  21    8   36 1
  22    9   19 ar
  23    9   37 1
  24   10   20 ar
  25   10   38 1
  26   11   20 ar
  27   11   39 1
  28   12   21 ar
  29   12   40 1
  30   13   21 ar
  31   13   41 1
  32   14   22 ar
  33   14   42 1
  34   15   19 ar
  35   15   22 ar
  36   15   43 1
  37   16   17 1
  38   16   24 1
  39   16   44 1
  40   16   45 1
  41   17   26 1
  42   17   46 1
  43   17   47 1
  44   18   19 1
  45   18   25 2
  46   20   23 1
  47   21   23 1
  48   22   23 1
  49   23   26 1
  50   24   48 1
  51   24   49 1

#	End of record

