#	Name: ASD01880584
#	Creating user name:	WinNT
#	Creation time:	15. 06. 2019 19:41

#	Modifying user name:	WinNT
#	Modification time:	15. 06. 2019 19:41

#	Program:	/corina/corina34_cracker 3.40 0067  02.08.2006

@<TRIPOS>MOLECULE
ASD01880584
  46   50    0    0    0
SMALL
NO_CHARGES


@<TRIPOS>ATOM
   1 C1            -0.0146     1.3990     0.1545 C.ar    
   2 C2             0.0018     0.0026     0.1216 C.ar    
   3 C3             1.2115    -0.6854     0.0623 C.ar    
   4 C4             2.4007     0.0229     0.0361 C.ar    
   5 C5             2.3740     1.4280     0.0695 C.ar    
   6 C6             1.1551     2.1047     0.1290 C.ar    
   7 N7             3.6253    -0.6364    -0.0226 N.pl3   
   8 C8             4.7903     0.0678    -0.0477 C.2     
   9 N9             4.8011     1.4590    -0.0160 N.am    
  10 C10            3.6509     2.1610     0.0410 C.2     
  11 N11            3.9426    -2.0015    -0.0652 N.2     
  12 C12            5.2527    -2.1207    -0.1145 C.2     
  13 C13            5.8122    -0.8312    -0.1046 C.2     
  14 O14            3.6679     3.3767     0.0677 O.2     
  15 C15           -1.2749    -0.7512     0.1503 C.ar    
  16 C16            6.0085    -3.3965    -0.1707 C.ar    
  17 C17           -2.4890    -0.0689     0.2101 C.ar    
  18 C18           -3.6741    -0.7755     0.2362 C.ar    
  19 C19           -3.6587    -2.1584     0.2035 C.ar    
  20 C20           -2.4569    -2.8409     0.1446 C.ar    
  21 C21           -1.2658    -2.1446     0.1119 C.ar    
  22 C22            5.3284    -4.6126    -0.1750 C.ar    
  23 C23            7.4008    -3.3825    -0.2250 C.ar    
  24 C24            8.0988    -4.5721    -0.2771 C.ar    
  25 C25            7.4187    -5.7766    -0.2758 C.ar    
  26 C26            6.0364    -5.7962    -0.2273 C.ar    
  27 C27            5.9783     2.1146    -0.0429 C.2     
  28 C28            6.0015     3.6177    -0.1490 C.3     
  29 O29            7.0186     1.4952     0.0184 O.2     
  30 H30           -0.9575     1.9239     0.1960 H       
  31 H31            1.2217    -1.7650     0.0372 H       
  32 H32            1.1363     3.1842     0.1547 H       
  33 H33            6.8656    -0.5951    -0.1371 H       
  34 H34           -2.5022     1.0107     0.2364 H       
  35 H35           -4.6153    -0.2480     0.2825 H       
  36 H36           -4.5885    -2.7073     0.2245 H       
  37 H37           -2.4508    -3.9206     0.1201 H       
  38 H38           -0.3281    -2.6784     0.0659 H       
  39 H39            4.2492    -4.6290    -0.1372 H       
  40 H40            7.9328    -2.4426    -0.2267 H       
  41 H41            9.1779    -4.5624    -0.3192 H       
  42 H42            7.9688    -6.7051    -0.3174 H       
  43 H43            5.5105    -6.7394    -0.2266 H       
  44 H44            5.8836     4.0538     0.8429 H       
  45 H45            6.9523     3.9372    -0.5757 H       
  46 H46            5.1854     3.9492    -0.7910 H       
@<TRIPOS>BOND
   1    1    2 ar
   2    1    6 ar
   3    1   30 1
   4    2    3 ar
   5    2   15 1
   6    3    4 ar
   7    3   31 1
   8    4    5 ar
   9    4    7 1
  10    5    6 ar
  11    5   10 1
  12    6   32 1
  13    7    8 1
  14    7   11 1
  15    8    9 1
  16    8   13 2
  17    9   10 am
  18    9   27 am
  19   10   14 2
  20   11   12 2
  21   12   13 1
  22   12   16 1
  23   13   33 1
  24   15   17 ar
  25   15   21 ar
  26   16   22 ar
  27   16   23 ar
  28   17   18 ar
  29   17   34 1
  30   18   19 ar
  31   18   35 1
  32   19   20 ar
  33   19   36 1
  34   20   21 ar
  35   20   37 1
  36   21   38 1
  37   22   26 ar
  38   22   39 1
  39   23   24 ar
  40   23   40 1
  41   24   25 ar
  42   24   41 1
  43   25   26 ar
  44   25   42 1
  45   26   43 1
  46   27   28 1
  47   27   29 2
  48   28   44 1
  49   28   45 1
  50   28   46 1

#	End of record

