#	Name: ASD01820074
#	Creating user name:	WinNT
#	Creation time:	15. 06. 2019 19:36

#	Modifying user name:	WinNT
#	Modification time:	15. 06. 2019 19:36

#	Program:	/corina/corina34_cracker 3.40 0067  02.08.2006

@<TRIPOS>MOLECULE
ASD01820074
  72   74    0    0    0
SMALL
NO_CHARGES


@<TRIPOS>ATOM
   1 C1            -0.0184     1.5023     0.0103 C.ar    
   2 C2             0.0021    -0.0041     0.0020 C.3     
   3 C3             1.1967    -0.4945    -0.8168 C.3     
   4 C4             2.4437     0.2314    -0.3891 C.2     
   5 N5             2.3941     1.5225    -0.0132 N.am    
   6 C6             1.1765     2.2096     0.0027 C.ar    
   7 C7             4.2643     2.8594    -0.8476 C.3     
   8 C8             3.6242     2.2128     0.3824 C.3     
   9 O9             3.5058    -0.3543    -0.3827 O.2     
  10 C10            5.5490     3.5804    -0.4344 C.3     
  11 N11            6.1636     4.2012    -1.6154 N.3     
  12 C12            7.2620     5.0956    -1.2282 C.3     
  13 C13            1.1582     3.5981     0.0114 C.ar    
  14 C14           -0.0480     4.2706     0.0268 C.ar    
  15 C15           -1.2363     3.5630     0.0341 C.ar    
  16 C16           -1.2214     2.1803     0.0197 C.ar    
  17 C17            5.1601     4.9100    -2.4197 C.3     
  18 C18            5.8054     5.4182    -3.7109 C.3     
  19 C19            6.9632     6.3576    -3.3617 C.3     
  20 C20            7.9701     5.6094    -2.4838 C.3     
  21 O21           15.7065    13.7768    -8.1072 O.3     
  22 C22            7.6510     6.8212    -4.6474 C.3     
  23 C23            8.7260     7.8550    -4.3063 C.3     
  24 C24            9.4138     8.3186    -5.5920 C.3     
  25 C25           10.4889     9.3525    -5.2509 C.3     
  26 C26           11.1767     9.8161    -6.5366 C.3     
  27 C27           12.2517    10.8500    -6.1955 C.3     
  28 C28           12.9396    11.3136    -7.4812 C.3     
  29 C29           14.0146    12.3475    -7.1401 C.3     
  30 C30           14.7024    12.8111    -8.4258 C.3     
  31 H31            0.0872    -0.3717     1.0246 H       
  32 H32           -0.9206    -0.3773    -0.4423 H       
  33 H33            1.3287    -1.5649    -0.6591 H       
  34 H34            1.0126    -0.3057    -1.8744 H       
  35 H35            4.5001     2.0891    -1.5818 H       
  36 H36            3.5694     3.5768    -1.2841 H       
  37 H37            3.3884     2.9832     1.1166 H       
  38 H38            4.3191     1.4954     0.8189 H       
  39 H39            5.3132     4.3507     0.2998 H       
  40 H40            6.2439     2.8630     0.0021 H       
  41 H41            6.8622     5.9394    -0.6658 H       
  42 H42            7.9730     4.5501    -0.6077 H       
  43 H43            2.0858     4.1513     0.0065 H       
  44 H44           -0.0633     5.3504     0.0335 H       
  45 H45           -2.1780     4.0915     0.0465 H       
  46 H46           -2.1508     1.6304     0.0253 H       
  47 H47            4.3444     4.2297    -2.6646 H       
  48 H48            4.7701     5.7547    -1.8517 H       
  49 H49            6.1834     4.5729    -4.2860 H       
  50 H50            5.0641     5.9578    -4.3004 H       
  51 H51            6.5797     7.2230    -2.8213 H       
  52 H52            8.7754     6.2855    -2.1966 H       
  53 H53            8.3822     4.7671    -3.0396 H       
  54 H54           16.1846    14.1154    -8.8765 H       
  55 H55            8.1128     5.9661    -5.1410 H       
  56 H56            6.9133     7.2699    -5.3126 H       
  57 H57            8.2642     8.7101    -3.8127 H       
  58 H58            9.4637     7.4063    -3.6411 H       
  59 H59            9.8757     7.4636    -6.0856 H       
  60 H60            8.6762     8.7674    -6.2572 H       
  61 H61           10.0270    10.2076    -4.7573 H       
  62 H62           11.2265     8.9038    -4.5857 H       
  63 H63           11.6385     8.9611    -7.0302 H       
  64 H64           10.4390    10.2649    -7.2018 H       
  65 H65           11.7899    11.7051    -5.7019 H       
  66 H66           12.9894    10.4013    -5.5303 H       
  67 H67           13.4014    10.4586    -7.9748 H       
  68 H68           12.2019    11.7624    -8.1464 H       
  69 H69           13.5527    13.2026    -6.6465 H       
  70 H70           14.7522    11.8987    -6.4749 H       
  71 H71           13.9647    13.2599    -9.0910 H       
  72 H72           15.1642    11.9561    -8.9194 H       
@<TRIPOS>BOND
   1    1    2 1
   2    1    6 ar
   3    1   16 ar
   4    2    3 1
   5    2   31 1
   6    2   32 1
   7    3    4 1
   8    3   33 1
   9    3   34 1
  10    4    5 am
  11    4    9 2
  12    5    6 1
  13    5    8 1
  14    6   13 ar
  15    7    8 1
  16    7   10 1
  17    7   35 1
  18    7   36 1
  19    8   37 1
  20    8   38 1
  21   10   11 1
  22   10   39 1
  23   10   40 1
  24   11   12 1
  25   11   17 1
  26   12   20 1
  27   12   41 1
  28   12   42 1
  29   13   14 ar
  30   13   43 1
  31   14   15 ar
  32   14   44 1
  33   15   16 ar
  34   15   45 1
  35   16   46 1
  36   17   18 1
  37   17   47 1
  38   17   48 1
  39   18   19 1
  40   18   49 1
  41   18   50 1
  42   19   22 1
  43   19   20 1
  44   19   51 1
  45   20   52 1
  46   20   53 1
  47   21   30 1
  48   21   54 1
  49   22   23 1
  50   22   55 1
  51   22   56 1
  52   23   24 1
  53   23   57 1
  54   23   58 1
  55   24   25 1
  56   24   59 1
  57   24   60 1
  58   25   26 1
  59   25   61 1
  60   25   62 1
  61   26   27 1
  62   26   63 1
  63   26   64 1
  64   27   28 1
  65   27   65 1
  66   27   66 1
  67   28   29 1
  68   28   67 1
  69   28   68 1
  70   29   30 1
  71   29   69 1
  72   29   70 1
  73   30   71 1
  74   30   72 1

#	End of record

