#	Name: ASD02500240
#	Creating user name:	WinNT
#	Creation time:	15. 06. 2019 20:22

#	Modifying user name:	WinNT
#	Modification time:	15. 06. 2019 20:22

#	Program:	/corina/corina34_cracker 3.40 0067  02.08.2006

@<TRIPOS>MOLECULE
ASD02500240
  63   67    0    0    0
SMALL
NO_CHARGES


@<TRIPOS>ATOM
   1 N1            -3.8779     5.4572    -0.0059 N.ar    
   2 C2            -5.0722     5.9973    -0.0108 C.ar    
   3 C3            -6.0365     5.6533     0.9344 C.ar    
   4 C4            -5.7471     4.7303     1.8985 C.ar    
   5 C5            -4.4636     4.1519     1.9004 C.ar    
   6 C6            -4.0935     3.1968     2.8604 C.ar    
   7 C7            -2.8420     2.6609     2.8288 C.ar    
   8 C8            -1.9229     3.0483     1.8561 C.ar    
   9 C9            -2.2481     3.9716     0.9105 C.ar    
  10 C10           -3.5303     4.5476     0.9101 C.ar    
  11 S11           -1.0661     4.4440    -0.3078 S.o2    
  12 O12           -1.0483     5.8648    -0.3200 O.2     
  13 O13            0.0913     3.6542    -0.0714 O.2     
  14 N14           -1.6624     3.9712    -1.7786 N.am    
  15 C15           -1.8865     2.6233    -2.0373 C.ar    
  16 C16           -3.0899     2.2173    -2.6015 C.ar    
  17 C17           -3.3127     0.8764    -2.8594 C.ar    
  18 C18           -2.3190    -0.0654    -2.5482 C.ar    
  19 C19           -1.1133     0.3591    -1.9807 C.ar    
  20 C20           -0.9014     1.6852    -1.7353 C.ar    
  21 O21           -4.4855     0.4736    -3.4096 O.3     
  22 C22           -5.4490     1.4886    -3.6985 C.3     
  23 C23           -2.5456    -1.4949    -2.8179 C.2     
  24 O24           -3.5283    -2.0508    -2.3655 O.2     
  25 N25           -1.6641    -2.1876    -3.5660 N.am    
  26 C26           -1.9262    -3.5882    -3.9256 C.3     
  27 C27           -1.8564    -3.7238    -5.4517 C.3     
  28 N28           -0.6162    -3.0918    -5.9230 N.am    
  29 C29           -0.3541    -1.6911    -5.5635 C.3     
  30 C30           -0.4265    -1.5538    -4.0421 C.3     
  31 C31            0.2653    -3.7844    -6.6712 C.2     
  32 C32            0.0391    -5.2221    -6.9398 C.ar    
  33 C33           -1.1412    -5.6632    -7.5468 C.ar    
  34 C34           -1.3110    -7.0137    -7.7794 C.ar    
  35 N35           -0.3807    -7.8832    -7.4380 N.ar    
  36 C36            0.7462    -7.5137    -6.8642 C.ar    
  37 C37            1.0035    -6.1790    -6.5986 C.ar    
  38 O38            1.2459    -3.2283    -7.1253 O.2     
  39 F39            2.1637    -5.8065    -6.0152 F       
  40 H40           -5.3152     6.7288    -0.7673 H       
  41 H41           -7.0117     6.1164     0.9048 H       
  42 H42           -6.4823     4.4521     2.6391 H       
  43 H43           -4.7971     2.8890     3.6198 H       
  44 H44           -2.5581     1.9261     3.5676 H       
  45 H45           -0.9362     2.6092     1.8527 H       
  46 H46           -1.8554     4.6344    -2.4596 H       
  47 H47           -3.8500     2.9472    -2.8380 H       
  48 H48           -0.3470    -0.3629    -1.7399 H       
  49 H49            0.0329     2.0085    -1.3007 H       
  50 H50           -5.7197     2.0053    -2.7777 H       
  51 H51           -5.0243     2.2025    -4.4043 H       
  52 H52           -6.3380     1.0324    -4.1339 H       
  53 H53           -1.1747    -4.2305    -3.4665 H       
  54 H54           -2.9185    -3.8757    -3.5778 H       
  55 H55           -1.8563    -4.7788    -5.7256 H       
  56 H56           -2.7149    -3.2262    -5.9028 H       
  57 H57            0.6382    -1.4037    -5.9113 H       
  58 H58           -1.1056    -1.0488    -6.0226 H       
  59 H59           -0.4286    -0.4980    -3.7713 H       
  60 H60            0.4342    -2.0479    -3.5915 H       
  61 H61           -1.9089    -4.9580    -7.8291 H       
  62 H62           -2.2194    -7.3629    -8.2476 H       
  63 H63            1.4806    -8.2607    -6.6015 H       
@<TRIPOS>BOND
   1    1    2 ar
   2    1   10 ar
   3    2    3 ar
   4    2   40 1
   5    3    4 ar
   6    3   41 1
   7    4    5 ar
   8    4   42 1
   9    5    6 ar
  10    5   10 ar
  11    6    7 ar
  12    6   43 1
  13    7    8 ar
  14    7   44 1
  15    8    9 ar
  16    8   45 1
  17    9   10 ar
  18    9   11 1
  19   11   12 2
  20   11   13 2
  21   11   14 am
  22   14   15 1
  23   14   46 1
  24   15   16 ar
  25   15   20 ar
  26   16   17 ar
  27   16   47 1
  28   17   18 ar
  29   17   21 1
  30   18   19 ar
  31   18   23 1
  32   19   20 ar
  33   19   48 1
  34   20   49 1
  35   21   22 1
  36   22   50 1
  37   22   51 1
  38   22   52 1
  39   23   24 2
  40   23   25 am
  41   25   26 1
  42   25   30 1
  43   26   27 1
  44   26   53 1
  45   26   54 1
  46   27   28 1
  47   27   55 1
  48   27   56 1
  49   28   29 1
  50   28   31 am
  51   29   30 1
  52   29   57 1
  53   29   58 1
  54   30   59 1
  55   30   60 1
  56   31   32 1
  57   31   38 2
  58   32   33 ar
  59   32   37 ar
  60   33   34 ar
  61   33   61 1
  62   34   35 ar
  63   34   62 1
  64   35   36 ar
  65   36   37 ar
  66   36   63 1
  67   37   39 1

#	End of record

