#	Name: ASD00840002
#	Creating user name:	WinNT
#	Creation time:	15. 06. 2019 18:37

#	Modifying user name:	WinNT
#	Modification time:	15. 06. 2019 18:37

#	Program:	/corina/corina34_cracker 3.40 0067  02.08.2006

@<TRIPOS>MOLECULE
ASD00840002
  49   52    0    0    0
SMALL
NO_CHARGES


@<TRIPOS>ATOM
   1 C1            -0.0185     1.5130     0.0104 C.2     
   2 C2             0.0021    -0.0041     0.0020 C.3     
   3 C3            -0.8634    -0.4840     1.1666 C.3     
   4 O4             1.0015     2.1700     0.0041 O.2     
   5 C5            -1.3483     2.1392     0.0202 C.2     
   6 C6            -2.3776     1.4596     0.5186 C.2     
   7 C7            -3.7587     2.0921     0.4870 C.3     
   8 C8            -4.7078     1.1001    -0.1955 C.3     
   9 C9            -4.6583    -0.2483     0.5230 C.3     
  10 C10           -5.6180    -1.2236    -0.1333 C.3     
  11 C11           -7.1016    -0.8447    -0.0687 C.3     
  12 C12           -7.8177    -2.2113    -0.2465 C.3     
  13 C13           -6.8086    -3.2956     0.2066 C.3     
  14 O14           -7.3668    -4.0818     1.2612 O.3     
  15 C15           -5.5896    -2.5282     0.7079 C.3     
  16 C16           -5.7619    -2.1930     2.1907 C.3     
  17 C17           -4.2393    -3.1796     0.4791 C.3     
  18 C18           -3.1739    -2.2322     1.0536 C.3     
  19 C19           -3.2465    -0.8494     0.4136 C.3     
  20 C20           -2.2573     0.0901     1.1225 C.3     
  21 C21           -2.7327     0.1997     2.5727 C.3     
  22 H22           -2.9684    -0.9247    -0.6376 H       
  23 H23           -4.9299    -0.1156     1.5702 H       
  24 H24           -5.3192    -1.4134    -1.1642 H       
  25 H25           -0.4054    -0.3743    -0.9387 H       
  26 H26            1.0242    -0.3608     0.1292 H       
  27 H27           -0.9284    -1.5715     1.1331 H       
  28 H28           -0.3898    -0.1893     2.1030 H       
  29 H29           -1.4876     3.1362    -0.3710 H       
  30 H30           -4.0985     2.2892     1.5038 H       
  31 H31           -3.7264     3.0226    -0.0798 H       
  32 H32           -5.7248     1.4908    -0.1619 H       
  33 H33           -4.4067     0.9677    -1.2346 H       
  34 H34           -7.3455    -0.4044     0.8981 H       
  35 H35           -7.3616    -0.1647    -0.8799 H       
  36 H36           -8.7118    -2.2489     0.3759 H       
  37 H37           -8.0832    -2.3612    -1.2930 H       
  38 H38           -6.5357    -3.9327    -0.6347 H       
  39 H39           -8.1689    -4.5612     1.0122 H       
  40 H40           -6.7164    -1.6883     2.3406 H       
  41 H41           -5.7412    -3.1123     2.7759 H       
  42 H42           -4.9510    -1.5394     2.5121 H       
  43 H43           -4.1984    -4.1397     0.9936 H       
  44 H44           -4.0721    -3.3223    -0.5886 H       
  45 H45           -3.3268    -2.1351     2.1284 H       
  46 H46           -2.1862    -2.6563     0.8730 H       
  47 H47           -2.0605     0.8548     3.1269 H       
  48 H48           -3.7415     0.6120     2.5941 H       
  49 H49           -2.7348    -0.7897     3.0301 H       
@<TRIPOS>BOND
   1    1    2 1
   2    1    4 2
   3    1    5 1
   4    2    3 1
   5    2   25 1
   6    2   26 1
   7    3   20 1
   8    3   27 1
   9    3   28 1
  10    5    6 2
  11    5   29 1
  12    6    7 1
  13    6   20 1
  14    7    8 1
  15    7   30 1
  16    7   31 1
  17    8    9 1
  18    8   32 1
  19    8   33 1
  20    9   10 1
  21    9   23 1
  22    9   19 1
  23   10   11 1
  24   10   15 1
  25   10   24 1
  26   11   12 1
  27   11   34 1
  28   11   35 1
  29   12   13 1
  30   12   36 1
  31   12   37 1
  32   13   14 1
  33   13   15 1
  34   13   38 1
  35   14   39 1
  36   15   16 1
  37   15   17 1
  38   16   40 1
  39   16   41 1
  40   16   42 1
  41   17   18 1
  42   17   43 1
  43   17   44 1
  44   18   19 1
  45   18   45 1
  46   18   46 1
  47   19   22 1
  48   19   20 1
  49   20   21 1
  50   21   47 1
  51   21   48 1
  52   21   49 1

#	End of record

