#	Name: ASD01910119
#	Creating user name:	WinNT
#	Creation time:	15. 06. 2019 19:55

#	Modifying user name:	WinNT
#	Modification time:	15. 06. 2019 19:55

#	Program:	/corina/corina34_cracker 3.40 0067  02.08.2006

@<TRIPOS>MOLECULE
ASD01910119
  49   52    0    0    0
SMALL
NO_CHARGES


@<TRIPOS>ATOM
   1 C1            -0.1214     0.5367    -0.3980 C.ar    
   2 C2            -0.3091    -0.8371    -0.4566 C.ar    
   3 C3            -1.5832    -1.3732    -0.3964 C.ar    
   4 C4            -2.6801    -0.5325    -0.2763 C.ar    
   5 C5            -2.4924     0.8647    -0.2160 C.ar    
   6 C6            -1.2148     1.3915    -0.2720 C.ar    
   7 C7            -4.1372    -0.7484    -0.1866 C.2     
   8 N8            -4.7436     0.4476    -0.0819 N.am    
   9 C9            -3.8451     1.4488    -0.0916 C.2     
  10 C10           -6.1923     0.6354     0.0280 C.3     
  11 C11           -6.6117     0.4773     1.4668 C.ar    
  12 C12           -6.4986     1.5469     2.3452 C.ar    
  13 C13           -6.8866     1.3977     3.6707 C.ar    
  14 C14           -7.3835     0.1871     4.1111 C.ar    
  15 C15           -7.4951    -0.8771     3.2335 C.ar    
  16 C16           -7.1143    -0.7298     1.9117 C.ar    
  17 N17           -5.9946     2.7719     1.8964 N.am    
  18 C18           -5.4787     3.6518     2.7773 C.2     
  19 C19           -5.0527     4.9947     2.3197 C.ar    
  20 O20           -5.3630     3.3435     3.9471 O.2     
  21 O21           -4.1018     2.6331    -0.0121 O.2     
  22 O22           -4.6960    -1.8269    -0.2048 O.2     
  23 Br23          -8.1755    -2.5337     3.8407 Br      
  24 C24           -4.5203     5.8996     3.2350 C.ar    
  25 C25           -4.1261     7.1525     2.7918 C.ar    
  26 C26           -4.2783     7.4565     1.4482 C.ar    
  27 C27           -4.8157     6.5070     0.5934 C.ar    
  28 N28           -5.1765     5.3238     1.0395 N.ar    
  29 O29            1.1335     1.0500    -0.4581 O.3     
  30 C30            2.2102     0.1185    -0.5810 C.3     
  31 C31            3.5377     0.8774    -0.6333 C.3     
  32 H32            0.5448    -1.4918    -0.5501 H       
  33 H33           -1.7233    -2.4431    -0.4431 H       
  34 H34           -1.0658     2.4601    -0.2263 H       
  35 H35           -6.4567     1.6340    -0.3199 H       
  36 H36           -6.7026    -0.1092    -0.5831 H       
  37 H37           -6.7994     2.2278     4.3561 H       
  38 H38           -7.6850     0.0704     5.1416 H       
  39 H39           -7.2029    -1.5619     1.2288 H       
  40 H40           -6.0163     2.9882     0.9510 H       
  41 H41           -4.4164     5.6290     4.2754 H       
  42 H42           -3.7102     7.8754     3.4779 H       
  43 H43           -3.9813     8.4239     1.0711 H       
  44 H44           -4.9357     6.7406    -0.4541 H       
  45 H45            2.2093    -0.5533     0.2773 H       
  46 H46            2.0867    -0.4609    -1.4960 H       
  47 H47            4.3590     0.1669    -0.7271 H       
  48 H48            3.5386     1.5492    -1.4917 H       
  49 H49            3.6613     1.4569     0.2816 H       
@<TRIPOS>BOND
   1    1    2 ar
   2    1   29 1
   3    1    6 ar
   4    2    3 ar
   5    2   32 1
   6    3    4 ar
   7    3   33 1
   8    4    5 ar
   9    4    7 1
  10    5    6 ar
  11    5    9 1
  12    6   34 1
  13    7    8 am
  14    7   22 2
  15    8    9 am
  16    8   10 1
  17    9   21 2
  18   10   11 1
  19   10   35 1
  20   10   36 1
  21   11   12 ar
  22   11   16 ar
  23   12   13 ar
  24   12   17 1
  25   13   14 ar
  26   13   37 1
  27   14   15 ar
  28   14   38 1
  29   15   16 ar
  30   15   23 1
  31   16   39 1
  32   17   18 am
  33   17   40 1
  34   18   19 1
  35   18   20 2
  36   19   24 ar
  37   19   28 ar
  38   24   25 ar
  39   24   41 1
  40   25   26 ar
  41   25   42 1
  42   26   27 ar
  43   26   43 1
  44   27   28 ar
  45   27   44 1
  46   29   30 1
  47   30   31 1
  48   30   45 1
  49   30   46 1
  50   31   47 1
  51   31   48 1
  52   31   49 1

#	End of record

