#	Name: ASD08830077
#	Creating user name:	WinNT
#	Creation time:	15. 06. 2019 21:19

#	Modifying user name:	WinNT
#	Modification time:	15. 06. 2019 21:19

#	Program:	/corina/corina34_cracker 3.40 0067  02.08.2006

@<TRIPOS>MOLECULE
ASD08830077
  48   51    0    0    0
SMALL
NO_CHARGES


@<TRIPOS>ATOM
   1 C1            -0.0179     1.4664     0.0101 C.ar    
   2 C2             0.0021    -0.0041     0.0020 C.2     
   3 C3            -1.2926    -0.7753     0.0102 C.3     
   4 C4            -0.9927    -2.2755    -0.0007 C.3     
   5 N5            -2.2547    -3.0273     0.0073 N.3     
   6 O6             1.0604    -0.5961    -0.0113 O.2     
   7 C7            -2.0174    -4.4610    -0.2417 C.3     
   8 C8             1.1774     2.1721     0.0025 C.ar    
   9 C9             1.1498     3.5742     0.0103 C.ar    
  10 C10           -0.0981     4.2488     0.0258 C.ar    
  11 C11           -1.2933     3.5050     0.0332 C.ar    
  12 C12           -1.2503     2.1495     0.0197 C.ar    
  13 C13            2.3394     4.3244     0.0035 C.ar    
  14 C14            2.2783     5.6843     0.0118 C.ar    
  15 C15            1.0525     6.3463     0.0274 C.ar    
  16 C16           -0.1196     5.6527     0.0339 C.ar    
  17 C17           -2.6164    -5.2373     0.9499 C.3     
  18 C18           -3.6579    -4.2427     1.5269 C.3     
  19 C19           -2.9489    -2.8834     1.3047 C.3     
  20 C20           -3.2901    -6.5002     0.4785 C.ar    
  21 C21           -2.8547    -7.7289     0.9385 C.ar    
  22 C22           -3.4726    -8.8874     0.5060 C.ar    
  23 C23           -4.5262    -8.8172    -0.3861 C.ar    
  24 C24           -4.9622    -7.5884    -0.8454 C.ar    
  25 C25           -4.3471    -6.4297    -0.4096 C.ar    
  26 H26           -1.8592    -0.5245     0.9070 H       
  27 H27           -1.8762    -0.5150    -0.8728 H       
  28 H28           -0.4261    -2.5263    -0.8975 H       
  29 H29           -0.4091    -2.5358     0.8824 H       
  30 H30           -2.5094    -4.7632    -1.1662 H       
  31 H31           -0.9466    -4.6534    -0.3089 H       
  32 H32            2.1205     1.6460    -0.0090 H       
  33 H33           -2.2456     4.0144     0.0450 H       
  34 H34           -2.1719     1.5866     0.0252 H       
  35 H35            3.2965     3.8242    -0.0079 H       
  36 H36            3.1931     6.2583     0.0065 H       
  37 H37            1.0314     7.4261     0.0344 H       
  38 H38           -1.0618     6.1804     0.0456 H       
  39 H39           -1.8476    -5.4622     1.6891 H       
  40 H40           -4.5937    -4.2905     0.9702 H       
  41 H41           -3.8268    -4.4261     2.5880 H       
  42 H42           -2.2291    -2.6961     2.1015 H       
  43 H43           -3.6808    -2.0771     1.2562 H       
  44 H44           -2.0315    -7.7838     1.6355 H       
  45 H45           -3.1320    -9.8474     0.8649 H       
  46 H46           -5.0085    -9.7223    -0.7245 H       
  47 H47           -5.7851    -7.5336    -1.5427 H       
  48 H48           -4.6877    -5.4697    -0.7685 H       
@<TRIPOS>BOND
   1    1    2 1
   2    1    8 ar
   3    1   12 ar
   4    2    3 1
   5    2    6 2
   6    3    4 1
   7    3   26 1
   8    3   27 1
   9    4    5 1
  10    4   28 1
  11    4   29 1
  12    5    7 1
  13    5   19 1
  14    7   17 1
  15    7   30 1
  16    7   31 1
  17    8    9 ar
  18    8   32 1
  19    9   10 ar
  20    9   13 ar
  21   10   11 ar
  22   10   16 ar
  23   11   12 ar
  24   11   33 1
  25   12   34 1
  26   13   14 ar
  27   13   35 1
  28   14   15 ar
  29   14   36 1
  30   15   16 ar
  31   15   37 1
  32   16   38 1
  33   17   18 1
  34   17   20 1
  35   17   39 1
  36   18   19 1
  37   18   40 1
  38   18   41 1
  39   19   42 1
  40   19   43 1
  41   20   21 ar
  42   20   25 ar
  43   21   22 ar
  44   21   44 1
  45   22   23 ar
  46   22   45 1
  47   23   24 ar
  48   23   46 1
  49   24   25 ar
  50   24   47 1
  51   25   48 1

#	End of record

