#	Name: ASD05720310
#	Creating user name:	WinNT
#	Creation time:	15. 06. 2019 21:02

#	Modifying user name:	WinNT
#	Modification time:	15. 06. 2019 21:02

#	Program:	/corina/corina34_cracker 3.40 0067  02.08.2006

@<TRIPOS>MOLECULE
ASD05720310
  64   68    0    0    0
SMALL
NO_CHARGES


@<TRIPOS>ATOM
   1 C1            -0.0190     1.3902     0.0162 C.ar    
   2 C2            -0.0047    -0.0002     0.0127 C.ar    
   3 C3            -1.1896    -0.7027     0.0267 C.ar    
   4 C4            -2.4056    -0.0173     0.0444 C.ar    
   5 C5            -2.4169     1.3786     0.0479 C.ar    
   6 C6            -1.2286     2.0757     0.0397 C.ar    
   7 N7             1.1838     2.0996     0.0020 N.am    
   8 C8             1.2685     3.2694    -0.6620 C.2     
   9 N9             2.3939     4.0071    -0.5867 N.am    
  10 O10            0.3296     3.6592    -1.3290 O.2     
  11 C11            2.4860     5.2786    -1.3085 C.3     
  12 C12           -3.6800    -0.7689     0.0590 C.ar    
  13 C13           -4.7965    -0.2826     0.7698 C.ar    
  14 N14           -3.8011    -1.9161    -0.6025 N.ar    
  15 C15           -4.9409    -2.5951    -0.5943 C.ar    
  16 N16           -6.0110    -2.1793     0.0625 N.ar    
  17 C17           -5.9860    -1.0400     0.7487 C.ar    
  18 N18           -6.8931    -0.3589     1.5061 N.pl3   
  19 N19           -6.2783     0.8048     1.9851 N.2     
  20 C20           -5.0482     0.8592     1.5600 C.2     
  21 C21           -8.2728    -0.7731     1.7726 C.3     
  22 N22           -5.0129    -3.7836    -1.3002 N.3     
  23 C23           -3.7347    -4.0813    -1.9626 C.3     
  24 C24           -3.8398    -5.4296    -2.6802 C.3     
  25 O25           -4.9314    -5.3888    -3.6033 O.3     
  26 C26           -6.1920    -5.1018    -2.9919 C.3     
  27 C27           -6.1107    -3.7502    -2.2774 C.3     
  28 C28           -8.4715    -0.9450     3.2798 C.3     
  29 C29           -9.9125    -1.3776     3.5582 C.3     
  30 C30          -10.8755    -0.3100     3.0352 C.3     
  31 C31          -10.6768    -0.1381     1.5280 C.3     
  32 C32           -9.2359     0.2945     1.2496 C.3     
  33 C33          -12.2948    -0.7361     3.3094 C.2     
  34 O34          -12.5136    -1.7860     3.8659 O.2     
  35 O35          -13.3159     0.0508     2.9353 O.3     
  36 H36            0.9364    -0.5300    -0.0014 H       
  37 H37           -1.1779    -1.7827     0.0235 H       
  38 H38           -3.3561     1.9116     0.0617 H       
  39 H39           -1.2367     3.1557     0.0428 H       
  40 H40            1.9584     1.7505     0.4701 H       
  41 H41            3.1430     3.6961    -0.0546 H       
  42 H42            3.4624     5.7285    -1.1289 H       
  43 H43            2.3589     5.1003    -2.3763 H       
  44 H44            1.7050     5.9531    -0.9574 H       
  45 H45           -4.3405     1.6462     1.7751 H       
  46 H46           -8.4716    -1.7195     1.2696 H       
  47 H47           -3.5099    -3.2994    -2.6880 H       
  48 H48           -2.9405    -4.1266    -1.2174 H       
  49 H49           -2.9138    -5.6277    -3.2201 H       
  50 H50           -4.0113    -6.2190    -1.9485 H       
  51 H51           -6.9672    -5.0630    -3.7572 H       
  52 H52           -6.4319    -5.8817    -2.2692 H       
  53 H53           -7.0509    -3.5538    -1.7621 H       
  54 H54           -5.9239    -2.9631    -3.0079 H       
  55 H55           -7.7854    -1.7056     3.6524 H       
  56 H56           -8.2727     0.0014     3.7828 H       
  57 H57          -10.1113    -2.3240     3.0552 H       
  58 H58          -10.0541    -1.5001     4.6320 H       
  59 H59          -10.6767     0.6364     3.5382 H       
  60 H60          -10.8756    -1.0844     1.0250 H       
  61 H61          -11.3629     0.6225     1.1554 H       
  62 H62           -9.0370     1.2409     1.7526 H       
  63 H63           -9.0943     0.4170     0.1758 H       
  64 H64          -14.2085    -0.2648     3.1326 H       
@<TRIPOS>BOND
   1    1    2 ar
   2    1    7 1
   3    1    6 ar
   4    2    3 ar
   5    2   36 1
   6    3    4 ar
   7    3   37 1
   8    4    5 ar
   9    4   12 1
  10    5    6 ar
  11    5   38 1
  12    6   39 1
  13    7    8 am
  14    7   40 1
  15    8    9 am
  16    8   10 2
  17    9   11 1
  18    9   41 1
  19   11   42 1
  20   11   43 1
  21   11   44 1
  22   12   13 ar
  23   12   14 ar
  24   13   17 ar
  25   13   20 1
  26   14   15 ar
  27   15   16 ar
  28   15   22 1
  29   16   17 ar
  30   17   18 1
  31   18   19 1
  32   18   21 1
  33   19   20 2
  34   20   45 1
  35   21   28 1
  36   21   32 1
  37   21   46 1
  38   22   23 1
  39   22   27 1
  40   23   24 1
  41   23   47 1
  42   23   48 1
  43   24   25 1
  44   24   49 1
  45   24   50 1
  46   25   26 1
  47   26   27 1
  48   26   51 1
  49   26   52 1
  50   27   53 1
  51   27   54 1
  52   28   29 1
  53   28   55 1
  54   28   56 1
  55   29   30 1
  56   29   57 1
  57   29   58 1
  58   30   31 1
  59   30   33 1
  60   30   59 1
  61   31   32 1
  62   31   60 1
  63   31   61 1
  64   32   62 1
  65   32   63 1
  66   33   34 2
  67   33   35 1
  68   35   64 1

#	End of record

