#	Name: ASD02562100
#	Creating user name:	WinNT
#	Creation time:	15. 06. 2019 20:25

#	Modifying user name:	WinNT
#	Modification time:	15. 06. 2019 20:25

#	Program:	/corina/corina34_cracker 3.40 0067  02.08.2006

@<TRIPOS>MOLECULE
ASD02562100
  50   54    0    0    0
SMALL
NO_CHARGES


@<TRIPOS>ATOM
   1 C1             0.0859     1.8414    -0.8015 C.ar    
   2 N2             0.5136     0.8974    -1.6239 N.ar    
   3 C3            -0.2156     0.5341    -2.6742 C.ar    
   4 C4            -1.4496     1.1655    -2.9022 C.ar    
   5 C5            -1.8639     2.1634    -2.0024 C.ar    
   6 N6            -1.0749     2.4603    -0.9759 N.ar    
   7 N7            -3.0705     2.8184    -2.1795 N.pl3   
   8 N8             0.8751     2.1922     0.2832 N.pl3   
   9 C9            -3.5220     3.7258    -1.2151 C.ar    
  10 C10            2.0701     1.5164     0.5229 C.ar    
  11 C11            3.2846     2.1795     0.3726 C.ar    
  12 C12           -4.2694     4.8380    -1.5980 C.ar    
  13 C13           -4.4296     5.5440     0.6992 C.ar    
  14 C14           -3.6838     4.4231     1.0796 C.ar    
  15 C15           -3.2326     3.5183     0.1212 C.ar    
  16 C16            2.0455     0.1818     0.9175 C.ar    
  17 C17            3.2232    -0.4892     1.1557 C.ar    
  18 C18            4.4471     0.1722     1.0002 C.ar    
  19 C19            4.4670     1.5160     0.6083 C.ar    
  20 C20            3.3048     3.6261    -0.0494 C.3     
  21 C21            0.7274    -0.5293     1.0846 C.3     
  22 C22            5.7075    -0.5404     1.2535 C.2     
  23 C23            6.8867     0.0993     1.1029 C.2     
  24 C24            8.1146    -0.5950     1.3497 C.1     
  25 N25            9.0886    -1.1457     1.5455 N.1     
  26 N26           -0.0653    -0.3799    -3.6864 N.pl3   
  27 C27           -1.1692    -0.2925    -4.4833 C.2     
  28 N28           -1.9796     0.6145    -4.0215 N.2     
  29 C29           -4.7152     5.7281    -0.6708 C.ar    
  30 N30           -4.7855     6.3133     1.7468 N.2     
  31 C31           -4.4173     5.9472     2.9169 C.2     
  32 S32           -3.4940     4.4533     2.8309 S.3     
  33 H33           -3.6029     2.6482    -2.9723 H       
  34 H34            0.5955     2.9079     0.8751 H       
  35 H35           -4.4968     4.9951    -2.6420 H       
  36 H36           -2.6574     2.6550     0.4218 H       
  37 H37            3.2032    -1.5245     1.4626 H       
  38 H38            5.4091     2.0301     0.4871 H       
  39 H39            3.2744     4.2629     0.8347 H       
  40 H40            4.2167     3.8280    -0.6114 H       
  41 H41            2.4379     3.8337    -0.6767 H       
  42 H42            0.4877    -1.0702     0.1691 H       
  43 H43            0.7965    -1.2324     1.9146 H       
  44 H44           -0.0555     0.2006     1.2909 H       
  45 H45            5.6902    -1.5759     1.5601 H       
  46 H46            6.9040     1.1348     0.7964 H       
  47 H47            0.6877    -0.9782    -3.8123 H       
  48 H48           -1.3443    -0.8879    -5.3672 H       
  49 H49           -5.2931     6.5842    -0.9862 H       
  50 H50           -4.6416     6.4811     3.8285 H       
@<TRIPOS>BOND
   1    1    2 ar
   2    1    8 1
   3    1    6 ar
   4    2    3 ar
   5    3    4 ar
   6    3   26 1
   7    4    5 ar
   8    4   28 1
   9    5    6 ar
  10    5    7 1
  11    7    9 1
  12    7   33 1
  13    8   10 1
  14    8   34 1
  15    9   12 ar
  16    9   15 ar
  17   10   11 ar
  18   10   16 ar
  19   11   20 1
  20   11   19 ar
  21   12   29 ar
  22   12   35 1
  23   13   14 ar
  24   13   30 1
  25   13   29 ar
  26   14   15 ar
  27   14   32 1
  28   15   36 1
  29   16   17 ar
  30   16   21 1
  31   17   18 ar
  32   17   37 1
  33   18   19 ar
  34   18   22 1
  35   19   38 1
  36   20   39 1
  37   20   40 1
  38   20   41 1
  39   21   42 1
  40   21   43 1
  41   21   44 1
  42   22   23 2
  43   22   45 1
  44   23   24 1
  45   23   46 1
  46   24   25 3
  47   26   27 1
  48   26   47 1
  49   27   28 2
  50   27   48 1
  51   29   49 1
  52   30   31 2
  53   31   32 1
  54   31   50 1

#	End of record

