#	Name: ASD03331550
#	Creating user name:	WinNT
#	Creation time:	15. 06. 2019 20:39

#	Modifying user name:	WinNT
#	Modification time:	15. 06. 2019 20:39

#	Program:	/corina/corina34_cracker 3.40 0067  02.08.2006

@<TRIPOS>MOLECULE
ASD03331550
  35   37    0    0    0
SMALL
NO_CHARGES


@<TRIPOS>ATOM
   1 N1            -0.0162     1.3489     0.0130 N.pl3   
   2 C2             0.0022    -0.0040     0.0042 C.2     
   3 C3             1.2369    -0.8649    -0.0448 C.3     
   4 C4             2.2467    -0.3521     0.9865 C.3     
   5 C5             3.1237     0.7208     0.3484 C.3     
   6 C6             2.3243     1.5216    -0.6786 C.3     
   7 C7             1.1557     2.2291     0.0110 C.3     
   8 C8            -1.3250     1.7398     0.0342 C.2     
   9 N9            -2.0827     0.6693     0.0532 N.2     
  10 C10           -1.2932    -0.4269     0.0378 C.2     
  11 C11           -1.7498    -1.8263     0.0542 C.2     
  12 O12           -0.9379    -2.7307     0.0376 O.2     
  13 O13           -3.0682    -2.1047     0.0878 O.3     
  14 C14           -1.8077     3.1385     0.0355 C.ar    
  15 C15           -3.1162     3.4283    -0.3519 C.ar    
  16 C16           -3.5604     4.7346    -0.3481 C.ar    
  17 C17           -2.7112     5.7559     0.0388 C.ar    
  18 C18           -1.4125     5.4750     0.4241 C.ar    
  19 C19           -0.9579     4.1723     0.4297 C.ar    
  20 H20            0.9714    -1.8964     0.1868 H       
  21 H21            1.6764    -0.8155    -1.0410 H       
  22 H22            1.7136     0.0728     1.8370 H       
  23 H23            2.8718    -1.1784     1.3252 H       
  24 H24            3.4914     1.3937     1.1231 H       
  25 H25            3.9719     0.2465    -0.1453 H       
  26 H26            2.9731     2.2634    -1.1443 H       
  27 H27            1.9391     0.8473    -1.4436 H       
  28 H28            0.9192     3.1476    -0.5262 H       
  29 H29            1.4313     2.4695     1.0378 H       
  30 H30           -3.3196    -3.0384     0.0975 H       
  31 H31           -3.7800     2.6319    -0.6545 H       
  32 H32           -4.5731     4.9603    -0.6481 H       
  33 H33           -3.0636     6.7768     0.0398 H       
  34 H34           -0.7544     6.2767     0.7251 H       
  35 H35            0.0549     3.9539     0.7346 H       
@<TRIPOS>BOND
   1    1    2 1
   2    1    7 1
   3    1    8 1
   4    2    3 1
   5    2   10 2
   6    3    4 1
   7    3   20 1
   8    3   21 1
   9    4    5 1
  10    4   22 1
  11    4   23 1
  12    5    6 1
  13    5   24 1
  14    5   25 1
  15    6    7 1
  16    6   26 1
  17    6   27 1
  18    7   28 1
  19    7   29 1
  20    8    9 2
  21    8   14 1
  22    9   10 1
  23   10   11 1
  24   11   12 2
  25   11   13 1
  26   13   30 1
  27   14   15 ar
  28   14   19 ar
  29   15   16 ar
  30   15   31 1
  31   16   17 ar
  32   16   32 1
  33   17   18 ar
  34   17   33 1
  35   18   19 ar
  36   18   34 1
  37   19   35 1

#	End of record

