#	Name: ASD03912002
#	Creating user name:	WinNT
#	Creation time:	15. 06. 2019 20:47

#	Modifying user name:	WinNT
#	Modification time:	15. 06. 2019 20:47

#	Program:	/corina/corina34_cracker 3.40 0067  02.08.2006

@<TRIPOS>MOLECULE
ASD03912002
  45   46    0    0    0
SMALL
NO_CHARGES


@<TRIPOS>ATOM
   1 C1            -1.4776    -0.5810    -1.0575 C.ar    
   2 C2            -0.4352    -0.2083    -0.2289 C.ar    
   3 C3            -0.5632     0.8952     0.5945 C.ar    
   4 C4            -1.7336     1.6285     0.5920 C.ar    
   5 C5            -2.7823     1.2568    -0.2390 C.ar    
   6 C6            -2.6483     0.1517    -1.0693 C.ar    
   7 C7             0.5753     1.2978     1.4960 C.3     
   8 C8            -1.3338    -1.7844    -1.9533 C.3     
   9 N9            -3.9693     1.9976    -0.2439 N.am    
  10 C10           -3.9294     3.3355    -0.0861 C.2     
  11 C11           -5.1959     4.1451    -0.1936 C.3     
  12 O12           -2.8741     3.8880     0.1424 O.2     
  13 C13           -4.8801     5.6029     0.0212 C.ar    
  14 C14           -4.5505     6.4037    -1.0566 C.ar    
  15 C15           -4.2605     7.7403    -0.8624 C.ar    
  16 C16           -4.3002     8.2789     0.4155 C.ar    
  17 C17           -4.6312     7.4733     1.4953 C.ar    
  18 C18           -4.9259     6.1385     1.2951 C.ar    
  19 O19           -4.0150     9.5935     0.6092 O.3     
  20 C20           -3.6603    10.3573    -0.5452 C.3     
  21 Cl21          -2.2880     9.5565    -1.3975 Cl      
  22 C22           -4.8629    10.4468    -1.4868 C.3     
  23 C23           -3.2487    11.7442    -0.1229 C.2     
  24 O24           -3.3438    12.0763     1.0349 O.2     
  25 O25           -2.7764    12.6104    -1.0330 O.3     
  26 H26            0.4807    -0.7806    -0.2246 H       
  27 H27           -1.8332     2.4898     1.2359 H       
  28 H28           -3.4619    -0.1397    -1.7169 H       
  29 H29            1.2274     1.9942     0.9688 H       
  30 H30            0.1783     1.7779     2.3904 H       
  31 H31            1.1438     0.4124     1.7808 H       
  32 H32           -1.6767    -2.6738    -1.4248 H       
  33 H33           -1.9337    -1.6420    -2.8522 H       
  34 H34           -0.2870    -1.9076    -2.2309 H       
  35 H35           -4.8210     1.5483    -0.3609 H       
  36 H36           -5.6308     4.0096    -1.1838 H       
  37 H37           -5.9056     3.8117     0.5636 H       
  38 H38           -4.5194     5.9838    -2.0512 H       
  39 H39           -4.0028     8.3654    -1.7046 H       
  40 H40           -4.6628     7.8902     2.4911 H       
  41 H41           -5.1836     5.5109     2.1353 H       
  42 H42           -5.6474    11.0414    -1.0187 H       
  43 H43           -4.5585    10.9181    -2.4213 H       
  44 H44           -5.2397     9.4446    -1.6912 H       
  45 H45           -2.5252    13.4883    -0.7146 H       
@<TRIPOS>BOND
   1    1    2 ar
   2    1    8 1
   3    1    6 ar
   4    2    3 ar
   5    2   26 1
   6    3    4 ar
   7    3    7 1
   8    4    5 ar
   9    4   27 1
  10    5    6 ar
  11    5    9 1
  12    6   28 1
  13    7   29 1
  14    7   30 1
  15    7   31 1
  16    8   32 1
  17    8   33 1
  18    8   34 1
  19    9   10 am
  20    9   35 1
  21   10   11 1
  22   10   12 2
  23   11   13 1
  24   11   36 1
  25   11   37 1
  26   13   14 ar
  27   13   18 ar
  28   14   15 ar
  29   14   38 1
  30   15   16 ar
  31   15   39 1
  32   16   17 ar
  33   16   19 1
  34   17   18 ar
  35   17   40 1
  36   18   41 1
  37   19   20 1
  38   20   21 1
  39   20   22 1
  40   20   23 1
  41   22   42 1
  42   22   43 1
  43   22   44 1
  44   23   24 2
  45   23   25 1
  46   25   45 1

#	End of record

