#	Name: ASD03430666
#	Creating user name:	WinNT
#	Creation time:	15. 06. 2019 20:41

#	Modifying user name:	WinNT
#	Modification time:	15. 06. 2019 20:41

#	Program:	/corina/corina34_cracker 3.40 0067  02.08.2006

@<TRIPOS>MOLECULE
ASD03430666
  50   55    0    0    0
SMALL
NO_CHARGES


@<TRIPOS>ATOM
   1 C1            -0.0993     1.3560    -0.0554 C.ar    
   2 C2            -0.0622    -0.0299    -0.0478 C.ar    
   3 C3             1.1472    -0.6921    -0.0576 C.ar    
   4 C4             2.3438     0.0182    -0.0655 C.ar    
   5 C5             2.3030     1.4088    -0.0762 C.ar    
   6 C6             1.0897     2.0761    -0.0700 C.ar    
   7 O7             3.4175    -0.8226    -0.0476 O.3     
   8 C8             1.5145    -2.1517    -0.0737 C.3     
   9 C9             2.9991    -2.1373    -0.4619 C.3     
  10 C10            0.0673    -3.9342    -0.2968 C.ar    
  11 C11            0.6877    -2.9381    -1.0472 C.ar    
  12 C12            1.2916    -2.8079     1.2588 C.2     
  13 N13            0.4404    -3.8310     1.0454 N.am    
  14 O14            1.7818    -2.4814     2.3190 O.2     
  15 C15            0.4705    -2.8457    -2.4035 C.ar    
  16 C16           -0.3726    -3.7442    -3.0336 C.ar    
  17 C17           -0.9956    -4.7356    -2.2981 C.ar    
  18 C18           -0.7798    -4.8336    -0.9389 C.ar    
  19 O19           -1.3023     1.9934    -0.0542 O.3     
  20 C20           -1.2966     3.3788     0.3074 C.3     
  21 C21           -0.1531     4.0677    -0.4495 C.3     
  22 O22            1.0766     3.4377    -0.0750 O.3     
  23 C23           -0.0381    -4.7299     2.0986 C.3     
  24 C24            0.8127    -5.9736     2.1224 C.ar    
  25 C25            1.5862    -6.2509     3.2340 C.ar    
  26 C26            2.3649    -7.3977     3.2460 C.ar    
  27 C27            2.3364    -8.2265     2.1346 C.ar    
  28 C28            1.5384    -7.8842     1.0596 C.ar    
  29 N29            0.8065    -6.7873     1.0850 N.ar    
  30 C30            1.5833    -5.3181     4.4176 C.3     
  31 F31            2.3470    -5.8726     5.4502 F       
  32 F32            2.1310    -4.0867     4.0421 F       
  33 F33            0.2694    -5.1289     4.8591 F       
  34 H34           -0.9838    -0.5927    -0.0337 H       
  35 H35            3.2244     1.9720    -0.0890 H       
  36 H36            3.1189    -2.2602    -1.5383 H       
  37 H37            3.5484    -2.9070     0.0801 H       
  38 H38            0.9583    -2.0710    -2.9763 H       
  39 H39           -0.5439    -3.6710    -4.0974 H       
  40 H40           -1.6543    -5.4361    -2.7898 H       
  41 H41           -1.2693    -5.6109    -0.3711 H       
  42 H42           -2.2474     3.8347     0.0314 H       
  43 H43           -1.1388     3.4778     1.3814 H       
  44 H44           -0.3074     3.9627    -1.5234 H       
  45 H45           -0.1206     5.1244    -0.1839 H       
  46 H46            0.0270    -4.2266     3.0632 H       
  47 H47           -1.0747    -5.0026     1.9003 H       
  48 H48            2.9794    -7.6398     4.1005 H       
  49 H49            2.9306    -9.1280     2.1093 H       
  50 H50            1.5107    -8.5244     0.1902 H       
@<TRIPOS>BOND
   1    1    2 ar
   2    1    6 ar
   3    1   19 1
   4    2    3 ar
   5    2   34 1
   6    3    4 ar
   7    3    8 1
   8    4    5 ar
   9    4    7 1
  10    5    6 ar
  11    5   35 1
  12    6   22 1
  13    7    9 1
  14    8    9 1
  15    8   11 1
  16    8   12 1
  17    9   36 1
  18    9   37 1
  19   10   11 ar
  20   10   13 1
  21   10   18 ar
  22   11   15 ar
  23   12   13 am
  24   12   14 2
  25   13   23 1
  26   15   16 ar
  27   15   38 1
  28   16   17 ar
  29   16   39 1
  30   17   18 ar
  31   17   40 1
  32   18   41 1
  33   19   20 1
  34   20   21 1
  35   20   42 1
  36   20   43 1
  37   21   22 1
  38   21   44 1
  39   21   45 1
  40   23   24 1
  41   23   46 1
  42   23   47 1
  43   24   25 ar
  44   24   29 ar
  45   25   26 ar
  46   25   30 1
  47   26   27 ar
  48   26   48 1
  49   27   28 ar
  50   27   49 1
  51   28   29 ar
  52   28   50 1
  53   30   31 1
  54   30   32 1
  55   30   33 1

#	End of record

