#	Name: ASD02030002
#	Creating user name:	WinNT
#	Creation time:	15. 06. 2019 20:14

#	Modifying user name:	WinNT
#	Modification time:	15. 06. 2019 20:14

#	Program:	/corina/corina34_cracker 3.40 0067  02.08.2006

@<TRIPOS>MOLECULE
ASD02030002
  56   58    0    0    0
SMALL
NO_CHARGES


@<TRIPOS>ATOM
   1 C1            -2.0473    -1.1716    -2.8454 C.ar    
   2 C2            -2.1608    -2.5400    -2.6687 C.ar    
   3 C3            -3.3766    -3.0913    -2.3058 C.ar    
   4 C4            -4.4771    -2.2762    -2.1199 C.ar    
   5 C5            -4.3638    -0.9096    -2.2969 C.ar    
   6 C6            -3.1485    -0.3565    -2.6533 C.ar    
   7 Cl7           -0.5223    -0.4782    -3.3008 Cl      
   8 C8            -5.8013    -2.8772    -1.7246 C.3     
   9 C9            -5.9025    -2.9296    -0.1989 C.3     
  10 N10           -7.1933    -3.5154     0.1864 N.3     
  11 C11           -7.3260    -3.5818     1.6479 C.3     
  12 C12           -8.6798    -4.1960     2.0097 C.3     
  13 C13           -8.8180    -4.2652     3.5319 C.3     
  14 O14          -10.0294    -4.9438     3.8698 O.3     
  15 C15          -10.3057    -5.0916     5.1932 C.ar    
  16 C16          -11.4652    -5.7407     5.5909 C.ar    
  17 C17          -11.7463    -5.8917     6.9346 C.ar    
  18 C18          -10.8679    -5.3934     7.8876 C.ar    
  19 C19           -9.7073    -4.7437     7.4886 C.ar    
  20 C20           -9.4251    -4.5983     6.1445 C.ar    
  21 N21          -11.1522    -5.5455     9.2494 N.am    
  22 S22           -9.9716    -6.0630    10.2889 S.o2    
  23 C23           -9.4848    -7.6735     9.7653 C.ar    
  24 O24           -8.8505    -5.2161    10.0766 O.2     
  25 O25          -10.5950    -6.2244    11.5557 O.2     
  26 Cl26          -0.7783    -3.5636    -2.9029 Cl      
  27 O27           -9.7285    -3.3876     1.4724 O.3     
  28 C28           -8.3885    -7.8292     8.9379 C.ar    
  29 C29           -8.0066    -9.0927     8.5270 C.ar    
  30 C30           -8.7208   -10.2004     8.9439 C.ar    
  31 C31           -9.8166   -10.0446     9.7720 C.ar    
  32 C32          -10.1959    -8.7816    10.1864 C.ar    
  33 H33           -3.4660    -4.1588    -2.1681 H       
  34 H34           -5.2245    -0.2734    -2.1517 H       
  35 H35           -3.0607     0.7111    -2.7914 H       
  36 H36           -6.6111    -2.2650    -2.1217 H       
  37 H37           -5.8772    -3.8867    -2.1287 H       
  38 H38           -5.0927    -3.5417     0.1981 H       
  39 H39           -5.8265    -1.9201     0.2052 H       
  40 H40           -7.9598    -3.0028    -0.2233 H       
  41 H41           -6.5261    -4.1985     2.0577 H       
  42 H42           -7.2600    -2.5768     2.0648 H       
  43 H43           -8.7459    -5.2010     1.5928 H       
  44 H44           -7.9694    -4.8070     3.9495 H       
  45 H45           -8.8411    -3.2551     3.9409 H       
  46 H46          -12.1485    -6.1278     4.8496 H       
  47 H47          -12.6494    -6.3968     7.2441 H       
  48 H48           -9.0235    -4.3559     8.2292 H       
  49 H49           -8.5223    -4.0933     5.8340 H       
  50 H50          -12.0408    -5.3478     9.5843 H       
  51 H51           -9.7312    -2.4779     1.8003 H       
  52 H52           -7.8304    -6.9638     8.6122 H       
  53 H53           -7.1504    -9.2143     7.8800 H       
  54 H54           -8.4229   -11.1874     8.6223 H       
  55 H55          -10.3749   -10.9100    10.0975 H       
  56 H56          -11.0520    -8.6599    10.8334 H       
@<TRIPOS>BOND
   1    1    2 ar
   2    1    7 1
   3    1    6 ar
   4    2    3 ar
   5    2   26 1
   6    3    4 ar
   7    3   33 1
   8    4    5 ar
   9    4    8 1
  10    5    6 ar
  11    5   34 1
  12    6   35 1
  13    8    9 1
  14    8   36 1
  15    8   37 1
  16    9   10 1
  17    9   38 1
  18    9   39 1
  19   10   11 1
  20   10   40 1
  21   11   12 1
  22   11   41 1
  23   11   42 1
  24   12   13 1
  25   12   27 1
  26   12   43 1
  27   13   14 1
  28   13   44 1
  29   13   45 1
  30   14   15 1
  31   15   16 ar
  32   15   20 ar
  33   16   17 ar
  34   16   46 1
  35   17   18 ar
  36   17   47 1
  37   18   19 ar
  38   18   21 1
  39   19   20 ar
  40   19   48 1
  41   20   49 1
  42   21   22 am
  43   21   50 1
  44   22   23 1
  45   22   24 2
  46   22   25 2
  47   23   28 ar
  48   23   32 ar
  49   27   51 1
  50   28   29 ar
  51   28   52 1
  52   29   30 ar
  53   29   53 1
  54   30   31 ar
  55   30   54 1
  56   31   32 ar
  57   31   55 1
  58   32   56 1

#	End of record

