#	Name: ASD00310264
#	Creating user name:	WinNT
#	Creation time:	15. 06. 2019 18:34

#	Modifying user name:	WinNT
#	Modification time:	15. 06. 2019 18:34

#	Program:	/corina/corina34_cracker 3.40 0067  02.08.2006

@<TRIPOS>MOLECULE
ASD00310264
  42   45    0    0    0
SMALL
NO_CHARGES


@<TRIPOS>ATOM
   1 N1            -0.0162     1.3424     0.0094 N.pl3   
   2 C2             0.0021    -0.0041     0.0020 C.2     
   3 C3             1.3066    -0.4497    -0.0128 C.2     
   4 C4             2.1538     0.7595    -0.0144 C.ar    
   5 C5             3.5269     0.9758    -0.0260 C.ar    
   6 C6             4.0133     2.2775    -0.0232 C.ar    
   7 C7             3.1240     3.3558    -0.0090 C.ar    
   8 C8             1.7751     3.1455     0.0024 C.ar    
   9 C9             1.2675     1.8487    -0.0001 C.ar    
  10 C10            1.7459    -1.7970    -0.0236 C.2     
  11 O11            0.9345    -2.7000    -0.0204 O.2     
  12 C12            3.6595     4.7645    -0.0056 C.3     
  13 C13            5.4766     2.5228    -0.0350 C.ar    
  14 C14            6.3026     1.8693     0.8775 C.ar    
  15 C15            7.6631     2.1009     0.8617 C.ar    
  16 C16            8.2070     2.9801    -0.0572 C.ar    
  17 C17            7.3918     3.6316    -0.9652 C.ar    
  18 C18            6.0307     3.4031    -0.9622 C.ar    
  19 C19            9.6931     3.2296    -0.0688 C.3     
  20 C20           10.2481     3.5802    -1.4595 C.3     
  21 C21           11.1407     4.6159    -0.7556 C.3     
  22 C22           10.0819     4.6546     0.3590 C.3     
  23 O23           10.4327     2.2070     0.6015 O.3     
  24 H24           -0.8218     1.8827     0.0163 H       
  25 H25           -0.8721    -0.6383     0.0073 H       
  26 H26            4.2099     0.1392    -0.0366 H       
  27 H27            1.0992     3.9879     0.0137 H       
  28 H28            2.8025    -2.0204    -0.0345 H       
  29 H29            3.7794     5.1101    -1.0324 H       
  30 H30            2.9614     5.4173     0.5184 H       
  31 H31            4.6251     4.7849     0.4997 H       
  32 H32            5.8788     1.1832     1.5958 H       
  33 H33            8.3041     1.5949     1.5685 H       
  34 H34            7.8217     4.3173    -1.6803 H       
  35 H35            5.3956     3.9092    -1.6743 H       
  36 H36           10.8058     2.7674    -1.9247 H       
  37 H37            9.5079     4.0229    -2.1261 H       
  38 H38           12.1015     4.2159    -0.4315 H       
  39 H39           11.2344     5.5546    -1.3016 H       
  40 H40            9.2963     5.3910     0.1896 H       
  41 H41           10.5055     4.7092     1.3619 H       
  42 H42           10.1026     1.9985     1.4862 H       
@<TRIPOS>BOND
   1    1    2 1
   2    1    9 1
   3    1   24 1
   4    2    3 2
   5    2   25 1
   6    3    4 1
   7    3   10 1
   8    4    5 ar
   9    4    9 ar
  10    5    6 ar
  11    5   26 1
  12    6    7 ar
  13    6   13 1
  14    7    8 ar
  15    7   12 1
  16    8    9 ar
  17    8   27 1
  18   10   11 2
  19   10   28 1
  20   12   29 1
  21   12   30 1
  22   12   31 1
  23   13   14 ar
  24   13   18 ar
  25   14   15 ar
  26   14   32 1
  27   15   16 ar
  28   15   33 1
  29   16   17 ar
  30   16   19 1
  31   17   18 ar
  32   17   34 1
  33   18   35 1
  34   19   20 1
  35   19   22 1
  36   19   23 1
  37   20   21 1
  38   20   36 1
  39   20   37 1
  40   21   22 1
  41   21   38 1
  42   21   39 1
  43   22   40 1
  44   22   41 1
  45   23   42 1

#	End of record

