#	Name: ASD07931881
#	Creating user name:	WinNT
#	Creation time:	15. 06. 2019 21:13

#	Modifying user name:	WinNT
#	Modification time:	15. 06. 2019 21:13

#	Program:	/corina/corina34_cracker 3.40 0067  02.08.2006

@<TRIPOS>MOLECULE
ASD07931881
  34   35    0    0    0
SMALL
NO_CHARGES


@<TRIPOS>ATOM
   1 C1            -0.0187     1.5258     0.0104 C.3     
   2 C2             0.0021    -0.0041     0.0020 C.3     
   3 O3            -0.0368     1.5827     2.4554 O.3     
   4 C4            -0.7348     2.0192     1.2692 C.3     
   5 C5            -0.6732     3.5652     1.3617 C.3     
   6 C6            -0.8329     3.8057     2.8826 C.3     
   7 C7            -0.4309     2.4623     3.5218 C.3     
   8 C8             0.7237     2.6701     4.4678 C.ar    
   9 C9             0.4967     2.7405     5.8293 C.ar    
  10 C10            1.5568     2.9314     6.6994 C.ar    
  11 C11            2.8442     3.0512     6.2053 C.ar    
  12 C12            3.0704     2.9801     4.8415 C.ar    
  13 C13            2.0093     2.7844     3.9736 C.ar    
  14 C14            3.9987     3.2595     7.1512 C.3     
  15 F15            4.5139     2.0178     7.5387 F       
  16 F16            4.9983     4.0000     6.5112 F       
  17 F17            3.5557     3.9539     8.2820 F       
  18 F18            4.3264     3.0969     4.3578 F       
  19 F19            1.3346     3.0010     8.0302 F       
  20 N20            1.3595     2.0342     0.0000 N.3     
  21 H21           -0.5459     1.8868    -0.8726 H       
  22 H22            0.5293    -0.3651     0.8851 H       
  23 H23           -1.0205    -0.3814     0.0098 H       
  24 H24            0.5123    -0.3556    -0.8948 H       
  25 H25           -1.7688     1.6747     1.2838 H       
  26 H26            0.2880     3.9380     1.0077 H       
  27 H27           -1.4937     4.0210     0.8075 H       
  28 H28           -0.1660     4.6011     3.2152 H       
  29 H29           -1.8678     4.0484     3.1239 H       
  30 H30           -1.2800     2.0380     4.0576 H       
  31 H31           -0.5078     2.6469     6.2146 H       
  32 H32            2.1860     2.7248     2.9098 H       
  33 H33            1.8695     1.7131     0.8092 H       
  34 H34            1.8338     1.7759    -0.8523 H       
@<TRIPOS>BOND
   1    1    2 1
   2    1   20 1
   3    1    4 1
   4    1   21 1
   5    2   22 1
   6    2   23 1
   7    2   24 1
   8    3    7 1
   9    3    4 1
  10    4    5 1
  11    4   25 1
  12    5    6 1
  13    5   26 1
  14    5   27 1
  15    6    7 1
  16    6   28 1
  17    6   29 1
  18    7    8 1
  19    7   30 1
  20    8    9 ar
  21    8   13 ar
  22    9   10 ar
  23    9   31 1
  24   10   11 ar
  25   10   19 1
  26   11   12 ar
  27   11   14 1
  28   12   13 ar
  29   12   18 1
  30   13   32 1
  31   14   15 1
  32   14   16 1
  33   14   17 1
  34   20   33 1
  35   20   34 1

#	End of record

