#	Name: ASD01883559
#	Creating user name:	WinNT
#	Creation time:	15. 06. 2019 19:46

#	Modifying user name:	WinNT
#	Modification time:	15. 06. 2019 19:46

#	Program:	/corina/corina34_cracker 3.40 0067  02.08.2006

@<TRIPOS>MOLECULE
ASD01883559
  51   54    0    0    0
SMALL
NO_CHARGES


@<TRIPOS>ATOM
   1 C1            -0.0171     1.4071     0.0098 C.2     
   2 C2            -0.3904     0.6527     1.1426 C.2     
   3 C3            -1.5464    -0.0430     1.1333 C.2     
   4 N4            -2.3614    -0.0289     0.0448 N.am    
   5 C5            -2.0410     0.6775    -1.0550 C.2     
   6 C6            -0.8563     1.4204    -1.0929 C.2     
   7 O7            -2.7892     0.6742    -2.0205 O.2     
   8 N8             1.1653     2.1265     0.0024 N.pl3   
   9 C9             1.1484     3.5921    -0.0998 C.3     
  10 C10            1.9538     4.1763     1.0656 C.3     
  11 C11            3.3493     3.5549     1.0772 C.3     
  12 C12            3.2555     2.0415     1.2592 C.3     
  13 C13            2.4599     1.4387     0.1026 C.3     
  14 C14           -3.6092    -0.7960     0.0697 C.3     
  15 C15           -4.7376     0.0830     0.6128 C.3     
  16 Cl16          -0.4357     2.3343    -2.5077 Cl      
  17 C17           -6.0407    -0.7183     0.6388 C.3     
  18 C18           -7.1691     0.1607     1.1819 C.3     
  19 O19            4.0288     3.8584    -0.1516 O.3     
  20 C20            4.7313     5.0882     0.1090 C.3     
  21 C21            5.0199     5.0960     1.5923 C.ar    
  22 C22            4.1795     4.1626     2.1803 C.ar    
  23 C23            5.9015     5.8180     2.3697 C.ar    
  24 C24            5.9478     5.6092     3.7359 C.ar    
  25 C25            5.1112     4.6777     4.3222 C.ar    
  26 C26            4.2271     3.9539     3.5433 C.ar    
  27 H27            0.2474     0.6321     2.0140 H       
  28 H28           -1.8282    -0.6192     2.0021 H       
  29 H29            1.5983     3.8978    -1.0445 H       
  30 H30            0.1202     3.9501    -0.0494 H       
  31 H31            2.0374     5.2563     0.9448 H       
  32 H32            1.4483     3.9530     2.0052 H       
  33 H33            4.2582     1.6142     1.2742 H       
  34 H34            2.7509     1.8188     2.1993 H       
  35 H35            2.2976     0.3764     0.2851 H       
  36 H36            3.0108     1.5717    -0.8285 H       
  37 H37           -3.8561    -1.1209    -0.9410 H       
  38 H38           -3.4867    -1.6682     0.7120 H       
  39 H39           -4.4906     0.4079     1.6235 H       
  40 H40           -4.8600     0.9551    -0.0294 H       
  41 H41           -6.2877    -1.0432    -0.3720 H       
  42 H42           -5.9183    -1.5904     1.2810 H       
  43 H43           -6.9222     0.4856     2.1926 H       
  44 H44           -7.2915     1.0329     0.5396 H       
  45 H45           -8.0975    -0.4101     1.2004 H       
  46 H46            5.6636     5.1150    -0.4551 H       
  47 H47            4.1065     5.9411    -0.1564 H       
  48 H48            6.5551     6.5456     1.9116 H       
  49 H49            6.6382     6.1738     4.3451 H       
  50 H50            5.1486     4.5147     5.3891 H       
  51 H51            3.5736     3.2264     4.0017 H       
@<TRIPOS>BOND
   1    1    2 1
   2    1    8 1
   3    1    6 2
   4    2    3 2
   5    2   27 1
   6    3    4 1
   7    3   28 1
   8    4    5 am
   9    4   14 1
  10    5    6 1
  11    5    7 2
  12    6   16 1
  13    8    9 1
  14    8   13 1
  15    9   10 1
  16    9   29 1
  17    9   30 1
  18   10   11 1
  19   10   31 1
  20   10   32 1
  21   11   12 1
  22   11   19 1
  23   11   22 1
  24   12   13 1
  25   12   33 1
  26   12   34 1
  27   13   35 1
  28   13   36 1
  29   14   15 1
  30   14   37 1
  31   14   38 1
  32   15   17 1
  33   15   39 1
  34   15   40 1
  35   17   18 1
  36   17   41 1
  37   17   42 1
  38   18   43 1
  39   18   44 1
  40   18   45 1
  41   19   20 1
  42   20   21 1
  43   20   46 1
  44   20   47 1
  45   21   22 ar
  46   21   23 ar
  47   22   26 ar
  48   23   24 ar
  49   23   48 1
  50   24   25 ar
  51   24   49 1
  52   25   26 ar
  53   25   50 1
  54   26   51 1

#	End of record

