#	Name: ASD07330019
#	Creating user name:	WinNT
#	Creation time:	15. 06. 2019 21:11

#	Modifying user name:	WinNT
#	Modification time:	15. 06. 2019 21:11

#	Program:	/corina/corina34_cracker 3.40 0067  02.08.2006

@<TRIPOS>MOLECULE
ASD07330019
  56   59    0    0    0
SMALL
NO_CHARGES


@<TRIPOS>ATOM
   1 C1             0.0870     1.1348    -0.8846 C.ar    
   2 C2             0.0920    -0.0355    -0.1402 C.ar    
   3 N3             1.2033    -0.5333     0.3598 N.ar    
   4 C4             2.3762     0.0639     0.1735 C.ar    
   5 C5             2.4439     1.2603    -0.5761 C.ar    
   6 C6             1.2768     1.8033    -1.1135 C.ar    
   7 N7             3.5212    -0.4478     0.6884 N.2     
   8 C8             4.6696     0.1325     0.5093 C.2     
   9 N9             4.8257     1.2829    -0.1965 N.am    
  10 C10            3.7566     1.8924    -0.7610 C.2     
  11 O11            3.8787     2.9233    -1.3969 O.2     
  12 C12            6.1026     1.8430    -0.3409 C.ar    
  13 C13            6.9375     1.4142    -1.3643 C.ar    
  14 C14            8.1948     1.9665    -1.5063 C.ar    
  15 C15            8.6243     2.9499    -0.6267 C.ar    
  16 C16            7.7905     3.3787     0.3960 C.ar    
  17 C17            6.5310     2.8309     0.5358 C.ar    
  18 C18            5.8932    -0.5037     1.1170 C.3     
  19 C19            6.0251    -0.0640     2.5765 C.3     
  20 N20            5.7665    -1.9659     1.0556 N.3     
  21 C21            7.0870    -2.6096     1.0643 C.3     
  22 C22            6.9170    -4.1056     1.0005 C.ar    
  23 C23            6.6632    -4.7212    -0.2107 C.ar    
  24 C24            6.5073    -6.0937    -0.2692 C.ar    
  25 C25            6.6056    -6.8502     0.8833 C.ar    
  26 C26            6.8604    -6.2345     2.0947 C.ar    
  27 C27            7.0206    -4.8629     2.1526 C.ar    
  28 O28            9.8626     3.4930    -0.7668 O.3     
  29 C29           11.6546     4.9888    -0.1409 C.3     
  30 C30           10.2392     4.5005     0.1740 C.3     
  31 N31            6.5579    -3.9110    -1.4450 N.pl3   
  32 O32            6.3342    -4.4536    -2.5123 O.2     
  33 O33            6.6949    -2.7019    -1.3933 O.2     
  34 H34           -0.8387     1.5192    -1.2868 H       
  35 H35           -0.8404    -0.5517     0.0342 H       
  36 H36            1.3010     2.7161    -1.6903 H       
  37 H37            6.6034     0.6485    -2.0488 H       
  38 H38            8.8444     1.6328    -2.3020 H       
  39 H39            8.1255     4.1440     1.0806 H       
  40 H40            5.8819     3.1651     1.3317 H       
  41 H41            6.7782    -0.1920     0.5622 H       
  42 H42            6.8847    -0.5586     3.0287 H       
  43 H43            6.1634     1.0163     2.6194 H       
  44 H44            5.1211    -0.3365     3.1212 H       
  45 H45            5.1911    -2.3110     1.8092 H       
  46 H46            7.6614    -2.2720     0.2017 H       
  47 H47            7.6152    -2.3426     1.9796 H       
  48 H48            6.3082    -6.5747    -1.2155 H       
  49 H49            6.4831    -7.9222     0.8377 H       
  50 H50            6.9369    -6.8255     2.9953 H       
  51 H51            7.2196    -4.3819     3.0988 H       
  52 H52           12.3505     4.1523    -0.0756 H       
  53 H53           11.6799     5.4045    -1.1482 H       
  54 H54           11.9420     5.7573     0.5767 H       
  55 H55            9.5434     5.3370     0.1087 H       
  56 H56           10.2140     4.0848     1.1813 H       
@<TRIPOS>BOND
   1    1    2 ar
   2    1    6 ar
   3    1   34 1
   4    2    3 ar
   5    2   35 1
   6    3    4 ar
   7    4    5 ar
   8    4    7 1
   9    5    6 ar
  10    5   10 1
  11    6   36 1
  12    7    8 2
  13    8    9 1
  14    8   18 1
  15    9   10 am
  16    9   12 1
  17   10   11 2
  18   12   13 ar
  19   12   17 ar
  20   13   14 ar
  21   13   37 1
  22   14   15 ar
  23   14   38 1
  24   15   16 ar
  25   15   28 1
  26   16   17 ar
  27   16   39 1
  28   17   40 1
  29   18   19 1
  30   18   20 1
  31   18   41 1
  32   19   42 1
  33   19   43 1
  34   19   44 1
  35   20   21 1
  36   20   45 1
  37   21   22 1
  38   21   46 1
  39   21   47 1
  40   22   23 ar
  41   22   27 ar
  42   23   24 ar
  43   23   31 1
  44   24   25 ar
  45   24   48 1
  46   25   26 ar
  47   25   49 1
  48   26   27 ar
  49   26   50 1
  50   27   51 1
  51   28   30 1
  52   29   30 1
  53   29   52 1
  54   29   53 1
  55   29   54 1
  56   30   55 1
  57   30   56 1
  58   31   32 2
  59   31   33 2

#	End of record

