#	Name: ASD03430906
#	Creating user name:	WinNT
#	Creation time:	15. 06. 2019 20:41

#	Modifying user name:	WinNT
#	Modification time:	15. 06. 2019 20:41

#	Program:	/corina/corina34_cracker 3.40 0067  02.08.2006

@<TRIPOS>MOLECULE
ASD03430906
  50   55    0    0    0
SMALL
NO_CHARGES


@<TRIPOS>ATOM
   1 O1             0.2056     1.5101     0.2147 O.3     
   2 C2             0.2017     0.0701     0.2414 C.3     
   3 C3             1.4505    -0.2827    -0.5779 C.3     
   4 C4             2.3073     0.9473    -0.4457 C.ar    
   5 C5             1.4815     1.9575     0.0402 C.ar    
   6 C6             2.0192     3.2184     0.2704 C.ar    
   7 C7             3.3603     3.4753     0.0113 C.ar    
   8 C8             4.1633     2.4499    -0.4737 C.ar    
   9 C9             3.6389     1.1968    -0.7028 C.ar    
  10 N10            2.1754    -2.3935    -1.0719 N.am    
  11 C11            2.1348    -1.5121    -0.0529 C.2     
  12 C12            1.1159    -0.5933    -2.0066 C.ar    
  13 C13            0.4922     0.1100    -3.0123 C.ar    
  14 C14            0.3282    -0.4637    -4.2611 C.ar    
  15 C15            0.7924    -1.7446    -4.4961 C.ar    
  16 C16            1.4172    -2.4543    -3.4913 C.ar    
  17 C17            1.5858    -1.8851    -2.2318 C.ar    
  18 O18            2.5666    -1.6790     1.0681 O.2     
  19 C19            5.5593     3.0171    -0.6400 C.3     
  20 C20            5.4728     4.3251     0.1815 C.3     
  21 O21            4.0685     4.6308     0.1468 O.3     
  22 C22            2.7685    -3.7295    -0.9742 C.3     
  23 C23            1.7075    -4.7220    -0.5739 C.2     
  24 N24            0.7373    -6.6264    -0.0802 N.2     
  25 C25            1.8808    -6.1037    -0.4423 C.2     
  26 C26            0.4203    -4.4333    -0.2727 C.2     
  27 N27           -0.2004    -5.5919     0.0333 N.pl3   
  28 C28           -1.6058    -5.7410     0.4190 C.3     
  29 C29            3.1631    -6.8597    -0.6770 C.3     
  30 F30            2.9511    -8.2222    -0.4409 F       
  31 F31            3.5780    -6.6748    -2.0002 F       
  32 F32            4.1507    -6.3840     0.1922 F       
  33 H33            0.2927    -0.2981     1.2633 H       
  34 H34           -0.6968    -0.3232    -0.2341 H       
  35 H35            1.3883     4.0066     0.6540 H       
  36 H36            4.2714     0.4089    -1.0842 H       
  37 H37            0.1301     1.1104    -2.8266 H       
  38 H38           -0.1614     0.0879    -5.0501 H       
  39 H39            0.6649    -2.1920    -5.4707 H       
  40 H40            1.7763    -3.4547    -3.6822 H       
  41 H41            6.3062     2.3427    -0.2212 H       
  42 H42            5.7715     3.2286    -1.6880 H       
  43 H43            5.8068     4.1604     1.2059 H       
  44 H44            6.0523     5.1175    -0.2920 H       
  45 H45            3.1856    -4.0134    -1.9404 H       
  46 H46            3.5600    -3.7218    -0.2249 H       
  47 H47           -0.0298    -3.4516    -0.2765 H       
  48 H48           -2.2122    -5.9006    -0.4725 H       
  49 H49           -1.7104    -6.5957     1.0874 H       
  50 H50           -1.9404    -4.8378     0.9292 H       
@<TRIPOS>BOND
   1    1    2 1
   2    1    5 1
   3    2    3 1
   4    2   33 1
   5    2   34 1
   6    3    4 1
   7    3   11 1
   8    3   12 1
   9    4    5 ar
  10    4    9 ar
  11    5    6 ar
  12    6    7 ar
  13    6   35 1
  14    7    8 ar
  15    7   21 1
  16    8    9 ar
  17    8   19 1
  18    9   36 1
  19   10   11 am
  20   10   17 1
  21   10   22 1
  22   11   18 2
  23   12   13 ar
  24   12   17 ar
  25   13   14 ar
  26   13   37 1
  27   14   15 ar
  28   14   38 1
  29   15   16 ar
  30   15   39 1
  31   16   17 ar
  32   16   40 1
  33   19   20 1
  34   19   41 1
  35   19   42 1
  36   20   21 1
  37   20   43 1
  38   20   44 1
  39   22   23 1
  40   22   45 1
  41   22   46 1
  42   23   26 2
  43   23   25 1
  44   24   25 2
  45   24   27 1
  46   25   29 1
  47   26   27 1
  48   26   47 1
  49   27   28 1
  50   28   48 1
  51   28   49 1
  52   28   50 1
  53   29   30 1
  54   29   31 1
  55   29   32 1

#	End of record

