#	Name: ASD03330501
#	Creating user name:	WinNT
#	Creation time:	15. 06. 2019 20:37

#	Modifying user name:	WinNT
#	Modification time:	15. 06. 2019 20:37

#	Program:	/corina/corina34_cracker 3.40 0067  02.08.2006

@<TRIPOS>MOLECULE
ASD03330501
  59   61    0    0    0
SMALL
NO_CHARGES


@<TRIPOS>ATOM
   1 C1            -0.4800    -1.6209     1.0932 C.3     
   2 N2            -0.2248    -2.9170     0.4488 N.3     
   3 C3             0.2416    -2.7382    -0.9381 C.3     
   4 C4             1.3641    -1.7334    -0.9267 C.2     
   5 N5             1.6291    -0.9127     0.1146 N.pl3   
   6 C6             0.8491    -0.9012     1.3554 C.3     
   7 C7             2.2899    -1.4595    -1.9031 C.2     
   8 N8             3.0938    -0.4875    -1.4371 N.2     
   9 C9             2.7060    -0.1524    -0.2252 C.2     
  10 C10            3.3336     0.8767     0.6239 C.2     
  11 C11            2.3852    -2.1126    -3.2228 C.2     
  12 O12            1.5940    -2.9838    -3.5286 O.2     
  13 C13            3.4439    -2.3919    -5.3996 C.3     
  14 N14            3.3492    -1.7435    -4.0893 N.am    
  15 C15           -1.4178    -3.7728     0.4969 C.3     
  16 C16            2.4990    -1.6969    -6.3820 C.3     
  17 C17            4.8590    -2.2927    -5.9081 C.2     
  18 O18            5.6507    -1.5565    -5.3585 O.2     
  19 C19            2.9787    -0.2643    -6.6242 C.3     
  20 C20            2.4881    -2.4619    -7.7070 C.3     
  21 C21            1.0854    -1.6694    -5.7973 C.3     
  22 N22            5.2448    -3.0222    -6.9737 N.am    
  23 C23            6.5934    -2.8604    -7.5227 C.3     
  24 O24            2.8224     1.1857     1.6831 O.2     
  25 C25            4.5836     1.5326     0.1879 C.ar    
  26 C26            5.1073     2.6015     0.9192 C.ar    
  27 C27            6.2748     3.2087     0.5066 C.ar    
  28 C28            6.9271     2.7617    -0.6292 C.ar    
  29 C29            6.4138     1.7036    -1.3587 C.ar    
  30 C30            5.2505     1.0830    -0.9543 C.ar    
  31 H31           -1.1016    -1.0078     0.4405 H       
  32 H32           -0.9977    -1.7819     2.0388 H       
  33 H33            0.6022    -3.6889    -1.3309 H       
  34 H34           -0.5764    -2.3697    -1.5571 H       
  35 H35            0.6564     0.1278     1.6590 H       
  36 H36            1.3994    -1.4198     2.1405 H       
  37 H37            3.1638    -3.4412    -5.3068 H       
  38 H38            3.9804    -1.0485    -3.8454 H       
  39 H39           -2.2581    -3.2508     0.0392 H       
  40 H40           -1.2241    -4.6970    -0.0476 H       
  41 H41           -1.6563    -4.0057     1.5347 H       
  42 H42            3.9858    -0.2839    -7.0407 H       
  43 H43            2.3056     0.2308    -7.3241 H       
  44 H44            2.9865     0.2807    -5.6802 H       
  45 H45            2.0320    -3.4405    -7.5577 H       
  46 H46            1.9137    -1.9020    -8.4450 H       
  47 H47            3.5108    -2.5881    -8.0621 H       
  48 H48            1.0932    -1.1244    -4.8534 H       
  49 H49            0.4123    -1.1742    -6.4972 H       
  50 H50            0.7437    -2.6899    -5.6248 H       
  51 H51            4.6296    -3.6544    -7.3772 H       
  52 H52            6.7214    -3.5280    -8.3747 H       
  53 H53            6.7329    -1.8286    -7.8454 H       
  54 H54            7.3293    -3.1040    -6.7564 H       
  55 H55            4.5988     2.9517     1.8053 H       
  56 H56            6.6808     4.0352     1.0710 H       
  57 H57            7.8409     3.2412    -0.9479 H       
  58 H58            6.9277     1.3604    -2.2445 H       
  59 H59            4.8509     0.2574    -1.5246 H       
@<TRIPOS>BOND
   1    1    2 1
   2    1    6 1
   3    1   31 1
   4    1   32 1
   5    2    3 1
   6    2   15 1
   7    3    4 1
   8    3   33 1
   9    3   34 1
  10    4    5 1
  11    4    7 2
  12    5    6 1
  13    5    9 1
  14    6   35 1
  15    6   36 1
  16    7    8 1
  17    7   11 1
  18    8    9 2
  19    9   10 1
  20   10   24 2
  21   10   25 1
  22   11   12 2
  23   11   14 am
  24   13   14 1
  25   13   16 1
  26   13   17 1
  27   13   37 1
  28   14   38 1
  29   15   39 1
  30   15   40 1
  31   15   41 1
  32   16   19 1
  33   16   20 1
  34   16   21 1
  35   17   18 2
  36   17   22 am
  37   19   42 1
  38   19   43 1
  39   19   44 1
  40   20   45 1
  41   20   46 1
  42   20   47 1
  43   21   48 1
  44   21   49 1
  45   21   50 1
  46   22   23 1
  47   22   51 1
  48   23   52 1
  49   23   53 1
  50   23   54 1
  51   25   26 ar
  52   25   30 ar
  53   26   27 ar
  54   26   55 1
  55   27   28 ar
  56   27   56 1
  57   28   29 ar
  58   28   57 1
  59   29   30 ar
  60   29   58 1
  61   30   59 1

#	End of record

