#	Name: ASD03092186
#	Creating user name:	WinNT
#	Creation time:	15. 06. 2019 20:32

#	Modifying user name:	WinNT
#	Modification time:	15. 06. 2019 20:32

#	Program:	/corina/corina34_cracker 3.40 0067  02.08.2006

@<TRIPOS>MOLECULE
ASD03092186
  53   57    0    0    0
SMALL
NO_CHARGES


@<TRIPOS>ATOM
   1 N1             0.2716     0.9010    -0.4007 N.pl3   
   2 C2             0.0683    -0.3543     0.0909 C.2     
   3 C3            -1.2727    -0.4968     0.3074 C.2     
   4 C4            -1.8958     0.7018    -0.0622 C.2     
   5 N5            -0.9734     1.5379    -0.4799 N.2     
   6 C6             1.1090    -1.3749     0.3429 C.ar    
   7 C7             2.3437    -1.3201    -0.3132 C.ar    
   8 C8             3.2857    -2.2922    -0.0479 C.ar    
   9 N9             3.0346    -3.2629     0.8097 N.ar    
  10 C10            1.8839    -3.3516     1.4496 C.ar    
  11 C11            0.8882    -2.4189     1.2487 C.ar    
  12 C12            1.5634     1.4827    -0.7737 C.3     
  13 N13           -3.2690     0.9658     0.0067 N.pl3   
  14 C14           -3.7505     2.2475    -0.2823 C.ar    
  15 C15           -5.0307     2.4090    -0.7949 C.ar    
  16 C16           -5.5077     3.6746    -1.0803 C.ar    
  17 C17           -4.7105     4.7848    -0.8564 C.ar    
  18 C18           -3.4254     4.6261    -0.3421 C.ar    
  19 C19           -2.9502     3.3586    -0.0510 C.ar    
  20 O20           -2.8511     5.8579    -0.2150 O.3     
  21 O21           -4.9404     6.1174    -1.0510 O.3     
  22 C22           -3.9403     6.7979    -0.2701 C.3     
  23 F23           -4.4210     7.0691     1.0154 F       
  24 F24           -3.5395     7.9780    -0.9055 F       
  25 C25            1.7991     1.2788    -2.2481 C.2     
  26 N26            2.9316     1.7350    -2.8189 N.am    
  27 C27            3.1607     1.5368    -4.2523 C.3     
  28 C28            1.6570    -4.4843     2.4173 C.3     
  29 C29            4.5099     2.1443    -4.6418 C.3     
  30 O30            0.9697     0.7043    -2.9211 O.2     
  31 C31            4.9886     1.9378    -6.0802 C.3     
  32 C32            4.4995     3.3148    -5.6270 C.3     
  33 H33           -1.7649    -1.3769     0.6941 H       
  34 H34            2.5559    -0.5288    -1.0170 H       
  35 H35            4.2417    -2.2585    -0.5493 H       
  36 H36           -0.0510    -2.4976     1.7761 H       
  37 H37            1.5595     2.5495    -0.5505 H       
  38 H38            2.3579     0.9960    -0.2080 H       
  39 H39           -3.8866     0.2602     0.2549 H       
  40 H40           -5.6543     1.5450    -0.9712 H       
  41 H41           -6.5038     3.7979    -1.4790 H       
  42 H42           -1.9544     3.2335     0.3481 H       
  43 H43            3.5950     2.1945    -2.2807 H       
  44 H44            3.1646     0.4699    -4.4755 H       
  45 H45            2.3662     2.0235    -4.8179 H       
  46 H46            1.9818    -4.1821     3.4130 H       
  47 H47            0.5964    -4.7346     2.4416 H       
  48 H48            2.2287    -5.3555     2.0975 H       
  49 H49            5.2655     2.1538    -3.8563 H       
  50 H50            6.0593     1.8118    -6.2411 H       
  51 H51            4.3425     1.3691    -6.7490 H       
  52 H52            3.5315     3.6521    -5.9977 H       
  53 H53            5.2484     4.0948    -5.4898 H       
@<TRIPOS>BOND
   1    1    2 1
   2    1   12 1
   3    1    5 1
   4    2    3 2
   5    2    6 1
   6    3    4 1
   7    3   33 1
   8    4    5 2
   9    4   13 1
  10    6    7 ar
  11    6   11 ar
  12    7    8 ar
  13    7   34 1
  14    8    9 ar
  15    8   35 1
  16    9   10 ar
  17   10   11 ar
  18   10   28 1
  19   11   36 1
  20   12   25 1
  21   12   37 1
  22   12   38 1
  23   13   14 1
  24   13   39 1
  25   14   15 ar
  26   14   19 ar
  27   15   16 ar
  28   15   40 1
  29   16   17 ar
  30   16   41 1
  31   17   18 ar
  32   17   21 1
  33   18   19 ar
  34   18   20 1
  35   19   42 1
  36   20   22 1
  37   21   22 1
  38   22   23 1
  39   22   24 1
  40   25   26 am
  41   25   30 2
  42   26   27 1
  43   26   43 1
  44   27   29 1
  45   27   44 1
  46   27   45 1
  47   28   46 1
  48   28   47 1
  49   28   48 1
  50   29   31 1
  51   29   32 1
  52   29   49 1
  53   31   32 1
  54   31   50 1
  55   31   51 1
  56   32   52 1
  57   32   53 1

#	End of record

