#	Name: ASD05503052
#	Creating user name:	WinNT
#	Creation time:	15. 06. 2019 21:01

#	Modifying user name:	WinNT
#	Modification time:	15. 06. 2019 21:01

#	Program:	/corina/corina34_cracker 3.40 0067  02.08.2006

@<TRIPOS>MOLECULE
ASD05503052
  42   43    0    0    0
SMALL
NO_CHARGES


@<TRIPOS>ATOM
   1 C1             0.0741     3.1442    -0.8891 C.ar    
   2 C2            -0.3212     1.8141    -0.9531 C.ar    
   3 C3             0.6275     0.8050    -0.8685 C.ar    
   4 C4             1.9686     1.1283    -0.7201 C.ar    
   5 C5             2.3575     2.4609    -0.6568 C.ar    
   6 C6             1.4105     3.4630    -0.7413 C.ar    
   7 N7            -1.6747     1.4921    -1.1022 N.am    
   8 C8            -2.6210     2.3069    -0.5953 C.2     
   9 C9            -4.0774     2.0309    -0.8670 C.3     
  10 O10           -2.3005     3.2623     0.0797 O.2     
  11 C11           -4.9350     3.0970    -0.1822 C.3     
  12 N12            2.9278     0.1143    -0.6340 N.am    
  13 C13            4.1146     0.3578    -0.0435 C.2     
  14 C14            5.1685    -0.6786    -0.0476 C.ar    
  15 O15            4.3182     1.4296     0.4926 O.2     
  16 C16            4.9996    -1.8471    -0.7920 C.ar    
  17 C17            5.9875    -2.8103    -0.7918 C.ar    
  18 C18            7.1435    -2.6198    -0.0561 C.ar    
  19 C19            7.3171    -1.4638     0.6844 C.ar    
  20 C20            6.3398    -0.4904     0.6884 C.ar    
  21 C21            6.5308     0.7682     1.4950 C.3     
  22 C22            0.2021    -0.6391    -0.9370 C.3     
  23 H23           -0.6634     3.9300    -0.9594 H       
  24 H24            3.4012     2.7134    -0.5410 H       
  25 H25            1.7153     4.4979    -0.6922 H       
  26 H26           -1.9319     0.6825    -1.5705 H       
  27 H27           -4.2574     2.0550    -1.9418 H       
  28 H28           -4.3399     1.0476    -0.4767 H       
  29 H29           -5.9883     2.8974    -0.3788 H       
  30 H30           -4.7550     3.0729     0.8925 H       
  31 H31           -4.6725     4.0803    -0.5726 H       
  32 H32            2.7390    -0.7642    -0.9993 H       
  33 H33            4.0975    -1.9972    -1.3664 H       
  34 H34            5.8579    -3.7151    -1.3671 H       
  35 H35            7.9137    -3.3769    -0.0594 H       
  36 H36            8.2217    -1.3214     1.2569 H       
  37 H37            6.8959     1.5640     0.8457 H       
  38 H38            5.5789     1.0660     1.9346 H       
  39 H39            7.2558     0.5850     2.2880 H       
  40 H40            0.2082    -0.9708    -1.9753 H       
  41 H41            0.8937    -1.2496    -0.3565 H       
  42 H42           -0.8034    -0.7414    -0.5288 H       
@<TRIPOS>BOND
   1    1    2 ar
   2    1    6 ar
   3    1   23 1
   4    2    3 ar
   5    2    7 1
   6    3    4 ar
   7    3   22 1
   8    4    5 ar
   9    4   12 1
  10    5    6 ar
  11    5   24 1
  12    6   25 1
  13    7    8 am
  14    7   26 1
  15    8    9 1
  16    8   10 2
  17    9   11 1
  18    9   27 1
  19    9   28 1
  20   11   29 1
  21   11   30 1
  22   11   31 1
  23   12   13 am
  24   12   32 1
  25   13   14 1
  26   13   15 2
  27   14   16 ar
  28   14   20 ar
  29   16   17 ar
  30   16   33 1
  31   17   18 ar
  32   17   34 1
  33   18   19 ar
  34   18   35 1
  35   19   20 ar
  36   19   36 1
  37   20   21 1
  38   21   37 1
  39   21   38 1
  40   21   39 1
  41   22   40 1
  42   22   41 1
  43   22   42 1

#	End of record

