#	Name: ASD01140092
#	Creating user name:	WinNT
#	Creation time:	15. 06. 2019 18:59

#	Modifying user name:	WinNT
#	Modification time:	15. 06. 2019 18:59

#	Program:	/corina/corina34_cracker 3.40 0067  02.08.2006

@<TRIPOS>MOLECULE
ASD01140092
  42   44    0    0    0
SMALL
NO_CHARGES


@<TRIPOS>ATOM
   1 C1            -0.0189     1.5415     0.0105 C.3     
   2 C2             0.0021    -0.0041     0.0020 C.3     
   3 C3            -1.2313    -0.3506     0.8655 C.3     
   4 C4            -1.5805     0.9386     1.5768 C.2     
   5 O5            -0.6910     1.8893     1.2571 O.3     
   6 C6             1.4073     2.0953    -0.0001 C.3     
   7 H7            -0.5794     1.9193    -0.8446 H       
   8 N8             2.1603     1.5263     1.1228 N.am    
   9 C9             1.8774     2.0605     2.4654 C.3     
  10 C10            2.2921     3.5309     2.4825 C.3     
  11 C11            1.7623     4.2517     1.2710 C.ar    
  12 C12            1.3635     3.5973     0.1273 C.ar    
  13 C13            1.6820     5.6379     1.3300 C.ar    
  14 C14            1.2127     6.3601     0.2530 C.ar    
  15 C15            0.8194     5.7019    -0.8975 C.ar    
  16 C16            0.8958     4.3258    -0.9582 C.ar    
  17 O17           -2.5200     1.0885     2.3216 O.2     
  18 H18            1.8943     1.8254    -0.9372 H       
  19 S19            3.2827     0.3311     0.8900 S.o2    
  20 N20            4.7393     1.0720     0.6219 N.am    
  21 O21            3.4029    -0.3534     2.1295 O.2     
  22 O22            2.9326    -0.3171    -0.3251 O.2     
  23 C23            5.6223     1.3813     1.7492 C.3     
  24 C24            5.1448     1.4182    -0.7426 C.3     
  25 H25           -0.1131    -0.3884    -1.0115 H       
  26 H26            0.9157    -0.3825     0.4604 H       
  27 H27           -2.0591    -0.6713     0.2331 H       
  28 H28           -0.9820    -1.1273     1.5885 H       
  29 H29            0.8119     1.9753     2.6792 H       
  30 H30            2.4491     1.5073     3.2105 H       
  31 H31            1.8981     4.0040     3.3819 H       
  32 H32            3.3801     3.5964     2.4912 H       
  33 H33            1.9896     6.1541     2.2274 H       
  34 H34            1.1523     7.4370     0.3082 H       
  35 H35            0.4536     6.2626    -1.7450 H       
  36 H36            0.5892     3.8112    -1.8568 H       
  37 H37            6.2904     0.5391     1.9292 H       
  38 H38            6.2109     2.2688     1.5169 H       
  39 H39            5.0225     1.5662     2.6404 H       
  40 H40            4.7963     2.4230    -0.9814 H       
  41 H41            6.2316     1.3830    -0.8187 H       
  42 H42            4.7083     0.7062    -1.4431 H       
@<TRIPOS>BOND
   1    1    2 1
   2    1    6 1
   3    1    7 1
   4    1    5 1
   5    2    3 1
   6    2   25 1
   7    2   26 1
   8    3    4 1
   9    3   27 1
  10    3   28 1
  11    4    5 1
  12    4   17 2
  13    6    8 1
  14    6   18 1
  15    6   12 1
  16    8    9 1
  17    8   19 am
  18    9   10 1
  19    9   29 1
  20    9   30 1
  21   10   11 1
  22   10   31 1
  23   10   32 1
  24   11   12 ar
  25   11   13 ar
  26   12   16 ar
  27   13   14 ar
  28   13   33 1
  29   14   15 ar
  30   14   34 1
  31   15   16 ar
  32   15   35 1
  33   16   36 1
  34   19   20 am
  35   19   21 2
  36   19   22 2
  37   20   23 1
  38   20   24 1
  39   23   37 1
  40   23   38 1
  41   23   39 1
  42   24   40 1
  43   24   41 1
  44   24   42 1

#	End of record

