#	Name: ASD02508253
#	Creating user name:	WinNT
#	Creation time:	15. 06. 2019 20:24

#	Modifying user name:	WinNT
#	Modification time:	15. 06. 2019 20:24

#	Program:	/corina/corina34_cracker 3.40 0067  02.08.2006

@<TRIPOS>MOLECULE
ASD02508253
  39   41    0    0    0
SMALL
NO_CHARGES


@<TRIPOS>ATOM
   1 C1             0.0849     0.9952     1.0238 C.ar    
   2 C2             0.0135    -0.3297     0.5945 C.ar    
   3 C3            -1.2233    -0.9126     0.3663 C.ar    
   4 C4            -2.3772    -0.1800     0.5648 C.ar    
   5 C5            -2.3053     1.1351     0.9905 C.ar    
   6 C6            -1.0776     1.7227     1.2257 C.ar    
   7 S7            -3.9484    -0.9228     0.2742 S.o2    
   8 N8            -4.4036    -1.6722     1.6790 N.am    
   9 C9            -3.6382    -2.7251     2.1895 C.ar    
  10 N10            1.4394     1.2960     1.1649 N.am    
  11 C11            2.1364     0.1916     0.8317 C.2     
  12 O12            1.2850    -0.7876     0.4884 O.3     
  13 O13           -4.8655     0.1438     0.0730 O.2     
  14 O14           -3.7343    -1.9541    -0.6796 O.2     
  15 C15            2.0018     2.5780     1.5964 C.3     
  16 O16            3.3487     0.0969     0.8407 O.2     
  17 C17           -3.3263    -2.7660     3.5424 C.ar    
  18 C18           -3.1936    -3.7343     1.3458 C.ar    
  19 C19           -2.4379    -4.7738     1.8524 C.ar    
  20 C20           -2.1242    -4.8101     3.2003 C.ar    
  21 C21           -2.5706    -3.8071     4.0445 C.ar    
  22 C22           -2.2275    -3.8493     5.5113 C.3     
  23 C23           -1.0018     3.1545     1.6897 C.3     
  24 F24           -1.3858    -5.8281     3.6939 F       
  25 H25           -1.2845    -1.9382     0.0334 H       
  26 H26           -3.2117     1.7021     1.1429 H       
  27 H27           -5.2013    -1.3808     2.1477 H       
  28 H28            1.5699     2.8595     2.5568 H       
  29 H29            3.0831     2.4848     1.6977 H       
  30 H30            1.7710     3.3437     0.8558 H       
  31 H31           -3.6743    -1.9841     4.2011 H       
  32 H32           -3.4387    -3.7068     0.2943 H       
  33 H33           -2.0919    -5.5590     1.1966 H       
  34 H34           -1.2883    -3.3226     5.6801 H       
  35 H35           -3.0211    -3.3695     6.0841 H       
  36 H36           -2.1250    -4.8864     5.8308 H       
  37 H37           -0.9187     3.1805     2.7762 H       
  38 H38           -0.1288     3.6342     1.2470 H       
  39 H39           -1.9030     3.6845     1.3814 H       
@<TRIPOS>BOND
   1    1    2 ar
   2    1   10 1
   3    1    6 ar
   4    2    3 ar
   5    2   12 1
   6    3    4 ar
   7    3   25 1
   8    4    5 ar
   9    4    7 1
  10    5    6 ar
  11    5   26 1
  12    6   23 1
  13    7    8 am
  14    7   13 2
  15    7   14 2
  16    8    9 1
  17    8   27 1
  18    9   17 ar
  19    9   18 ar
  20   10   11 am
  21   10   15 1
  22   11   12 1
  23   11   16 2
  24   15   28 1
  25   15   29 1
  26   15   30 1
  27   17   21 ar
  28   17   31 1
  29   18   19 ar
  30   18   32 1
  31   19   20 ar
  32   19   33 1
  33   20   21 ar
  34   20   24 1
  35   21   22 1
  36   22   34 1
  37   22   35 1
  38   22   36 1
  39   23   37 1
  40   23   38 1
  41   23   39 1

#	End of record

