#	Name: ASD04930012
#	Creating user name:	WinNT
#	Creation time:	15. 06. 2019 20:56

#	Modifying user name:	WinNT
#	Modification time:	15. 06. 2019 20:56

#	Program:	/corina/corina34_cracker 3.40 0067  02.08.2006

@<TRIPOS>MOLECULE
ASD04930012
  38   41    0    0    0
SMALL
NO_CHARGES


@<TRIPOS>ATOM
   1 S1            -0.0210     1.6939     0.0114 S.3     
   2 O2             1.6365    -1.5275    -0.0214 O.2     
   3 O3             2.3224     2.9128    -0.0037 O.2     
   4 N4             0.0021    -0.0041     0.0020 N.am    
   5 N5             2.1856     0.6226    -0.0155 N.am    
   6 C6            -1.1007    -0.8568     0.0076 C.ar    
   7 C7            -1.7408    -1.2017    -1.2029 C.ar    
   8 C8             3.6269     0.3610    -0.0311 C.3     
   9 C9             1.2962    -0.3594    -0.0122 C.2     
  10 C10           -2.8595    -2.0704    -1.1728 C.ar    
  11 C11            4.1072     0.2793    -1.4572 C.ar    
  12 C12           -1.5729    -1.3758     1.1944 C.ar    
  13 C13            1.6912     1.8721    -0.0040 C.2     
  14 C14           -1.2904    -0.7002    -2.4333 C.ar    
  15 C15           -3.3125    -2.5729     0.0593 C.ar    
  16 C16           -2.6725    -2.2287     1.2107 C.ar    
  17 C17           -3.4966    -2.4138    -2.3774 C.ar    
  18 C18           -1.9325    -1.0539    -3.5813 C.ar    
  19 C19            4.5413     1.4197    -2.1067 C.ar    
  20 C20            4.1189    -0.9371    -2.1139 C.ar    
  21 C21           -3.0320    -1.9087    -3.5531 C.ar    
  22 C22            4.9818     1.3447    -3.4149 C.ar    
  23 C23            4.5595    -1.0120    -3.4220 C.ar    
  24 C24            4.9886     0.1293    -4.0733 C.ar    
  25 H25            4.1484     1.1689     0.4822 H       
  26 H26            3.8305    -0.5825     0.4755 H       
  27 H27           -1.0836    -1.1178     2.1220 H       
  28 H28           -0.4390    -0.0368    -2.4701 H       
  29 H29           -4.1647    -3.2355     0.0922 H       
  30 H30           -3.0245    -2.6234     2.1523 H       
  31 H31           -4.3503    -3.0753    -2.3705 H       
  32 H32           -1.5840    -0.6661    -4.5271 H       
  33 H33            4.5360     2.3692    -1.5923 H       
  34 H34            3.7842    -1.8289    -1.6049 H       
  35 H35           -3.5232    -2.1744    -4.4775 H       
  36 H36            5.3203     2.2358    -3.9226 H       
  37 H37            4.5690    -1.9624    -3.9350 H       
  38 H38            5.3325     0.0708    -5.0954 H       
@<TRIPOS>BOND
   1    1    4 1
   2    1   13 1
   3    2    9 2
   4    3   13 2
   5    4    6 1
   6    4    9 am
   7    5    8 1
   8    5    9 am
   9    5   13 am
  10    6    7 ar
  11    6   12 ar
  12    7   10 ar
  13    7   14 ar
  14    8   11 1
  15    8   25 1
  16    8   26 1
  17   10   15 ar
  18   10   17 ar
  19   11   19 ar
  20   11   20 ar
  21   12   16 ar
  22   12   27 1
  23   14   18 ar
  24   14   28 1
  25   15   16 ar
  26   15   29 1
  27   16   30 1
  28   17   21 ar
  29   17   31 1
  30   18   21 ar
  31   18   32 1
  32   19   22 ar
  33   19   33 1
  34   20   23 ar
  35   20   34 1
  36   21   35 1
  37   22   24 ar
  38   22   36 1
  39   23   24 ar
  40   23   37 1
  41   24   38 1

#	End of record

