#	Name: ASD03090495
#	Creating user name:	WinNT
#	Creation time:	15. 06. 2019 20:28

#	Modifying user name:	WinNT
#	Modification time:	15. 06. 2019 20:28

#	Program:	/corina/corina34_cracker 3.40 0067  02.08.2006

@<TRIPOS>MOLECULE
ASD03090495
  43   46    0    0    0
SMALL
NO_CHARGES


@<TRIPOS>ATOM
   1 C1            -0.0168     1.3908     0.0097 C.ar    
   2 C2             0.0021    -0.0041     0.0020 C.ar    
   3 C3             1.2032    -0.6766    -0.0131 C.ar    
   4 C4             2.4034     0.0383    -0.0208 C.ar    
   5 C5             2.3833     1.4352    -0.0131 C.ar    
   6 C6             1.1811     2.1057     0.0021 C.ar    
   7 C7            -1.3112     2.1141     0.0198 C.ar    
   8 C8            -1.3338     3.5079     0.0274 C.ar    
   9 C9            -2.5414     4.1757     0.0368 C.ar    
  10 C10           -3.7280     3.4647     0.0387 C.ar    
  11 C11           -3.7118     2.0815     0.0315 C.ar    
  12 C12           -2.5102     1.4030     0.0158 C.ar    
  13 C13            3.6929    -0.6822    -0.0365 C.2     
  14 O14            3.7099    -1.8978    -0.0428 O.2     
  15 N15            4.8505     0.0080    -0.0439 N.am    
  16 C16            6.1293    -0.7066    -0.0595 C.3     
  17 N17           10.3580     3.0056     0.1927 N.pl3   
  18 C18           10.4973     3.1102     1.5499 C.2     
  19 C19            9.6041     2.3182     2.1639 C.2     
  20 C20            8.8296     1.6520     1.1141 C.ar    
  21 C21            7.7808     0.7302     1.1186 C.ar    
  22 C22            7.2609     0.2886    -0.0651 C.ar    
  23 C23            7.7669     0.7491    -1.2731 C.ar    
  24 C24            8.8015     1.6581    -1.3006 C.ar    
  25 C25            9.3462     2.1213    -0.1072 C.ar    
  26 H26           -0.9259    -0.5565     0.0083 H       
  27 H27            1.2176    -1.7565    -0.0187 H       
  28 H28            3.3106     1.9889    -0.0186 H       
  29 H29            1.1653     3.1856     0.0077 H       
  30 H30           -0.4080     4.0641     0.0264 H       
  31 H31           -2.5601     5.2555     0.0432 H       
  32 H32           -4.6708     3.9915     0.0460 H       
  33 H33           -4.6413     1.5315     0.0333 H       
  34 H34           -2.4987     0.3231     0.0054 H       
  35 H35            4.8369     0.9779    -0.0389 H       
  36 H36            6.2041    -1.3369     0.8266 H       
  37 H37            6.1874    -1.3279    -0.9532 H       
  38 H38           10.8901     3.4860    -0.4607 H       
  39 H39           11.2191     3.7369     2.0526 H       
  40 H40            9.4801     2.1955     3.2298 H       
  41 H41            7.3827     0.3669     2.0545 H       
  42 H42            7.3454     0.3908    -2.2007 H       
  43 H43            9.1885     2.0101    -2.2455 H       
@<TRIPOS>BOND
   1    1    2 ar
   2    1    6 ar
   3    1    7 1
   4    2    3 ar
   5    2   26 1
   6    3    4 ar
   7    3   27 1
   8    4    5 ar
   9    4   13 1
  10    5    6 ar
  11    5   28 1
  12    6   29 1
  13    7    8 ar
  14    7   12 ar
  15    8    9 ar
  16    8   30 1
  17    9   10 ar
  18    9   31 1
  19   10   11 ar
  20   10   32 1
  21   11   12 ar
  22   11   33 1
  23   12   34 1
  24   13   14 2
  25   13   15 am
  26   15   16 1
  27   15   35 1
  28   16   22 1
  29   16   36 1
  30   16   37 1
  31   17   18 1
  32   17   25 1
  33   17   38 1
  34   18   19 2
  35   18   39 1
  36   19   20 1
  37   19   40 1
  38   20   21 ar
  39   20   25 ar
  40   21   22 ar
  41   21   41 1
  42   22   23 ar
  43   23   24 ar
  44   23   42 1
  45   24   25 ar
  46   24   43 1

#	End of record

