#	Name: ASD00170006
#	Creating user name:	WinNT
#	Creation time:	15. 06. 2019 18:31

#	Modifying user name:	WinNT
#	Modification time:	15. 06. 2019 18:31

#	Program:	/corina/corina34_cracker 3.40 0067  02.08.2006

@<TRIPOS>MOLECULE
ASD00170006
  50   53    0    0    0
SMALL
NO_CHARGES


@<TRIPOS>ATOM
   1 C1             0.4432     1.7908     0.7279 C.ar    
   2 C2             3.8706     8.8436    -5.2505 C.ar    
   3 C3             3.5526     7.5331    -4.9621 C.ar    
   4 C4             4.5175     6.6888    -4.4100 C.ar    
   5 C5             5.7997     7.1774    -4.1526 C.ar    
   6 C6             6.1060     8.4898    -4.4448 C.ar    
   7 C7             5.1444     9.3228    -4.9925 C.ar    
   8 C8             4.1827     5.2825    -4.0985 C.2     
   9 C9             5.2245     4.3694    -3.6289 C.2     
  10 O10            3.0397     4.8846    -4.2329 O.2     
  11 Cl11           5.5372    10.9739    -5.3577 Cl      
  12 C12            5.5122     4.1315    -2.2301 C.2     
  13 C13            6.4961     3.2663    -2.0398 C.2     
  14 S14            7.1294     2.6909    -3.5714 S.3     
  15 C15            6.0334     3.6390    -4.4684 C.2     
  16 N16            5.9709     3.6747    -5.8467 N.pl3   
  17 C17            4.7673     4.8014    -1.1043 C.3     
  18 N18            3.4874     4.1141    -0.8867 N.3     
  19 C19            2.8413     4.5823     0.3474 C.3     
  20 C20            1.4781     3.9025     0.4959 C.3     
  21 N21            1.6608     2.4446     0.5210 N.3     
  22 C22            2.3069     1.9764    -0.7131 C.3     
  23 C23            3.6701     2.6562    -0.8617 C.3     
  24 C24            0.3992     0.4036     0.7846 C.ar    
  25 C25           -0.8055    -0.2399     0.9897 C.ar    
  26 C26           -1.9679     0.4960     1.1387 C.ar    
  27 C27           -1.9269     1.8781     1.0827 C.ar    
  28 C28           -0.7243     2.5270     0.8831 C.ar    
  29 Cl29          -3.4805    -0.3162     1.3959 Cl      
  30 H30            3.1263     9.4964    -5.6818 H       
  31 H31            2.5590     7.1606    -5.1634 H       
  32 H32            6.5502     6.5289    -3.7252 H       
  33 H33            7.0974     8.8691    -4.2458 H       
  34 H34            6.8605     2.9567    -1.0714 H       
  35 H35            6.6296     3.1969    -6.3746 H       
  36 H36            5.2682     4.1775    -6.2875 H       
  37 H37            5.3649     4.7534    -0.1939 H       
  38 H38            4.5807     5.8440    -1.3618 H       
  39 H39            3.4678     4.3318     1.2034 H       
  40 H40            2.7056     5.6628     0.2994 H       
  41 H41            1.0096     4.2263     1.4253 H       
  42 H42            0.8422     4.1749    -0.3464 H       
  43 H43            2.4426     0.8959    -0.6652 H       
  44 H44            1.6804     2.2269    -1.5692 H       
  45 H45            4.1386     2.3324    -1.7911 H       
  46 H46            4.3060     2.3838    -0.0194 H       
  47 H47            1.3060    -0.1712     0.6680 H       
  48 H48           -0.8404    -1.3184     1.0335 H       
  49 H49           -2.8357     2.4499     1.1990 H       
  50 H50           -0.6928     3.6057     0.8398 H       
@<TRIPOS>BOND
   1    1   24 ar
   2    1   21 1
   3    1   28 ar
   4    2    3 ar
   5    2    7 ar
   6    2   30 1
   7    3    4 ar
   8    3   31 1
   9    4    5 ar
  10    4    8 1
  11    5    6 ar
  12    5   32 1
  13    6    7 ar
  14    6   33 1
  15    7   11 1
  16    8    9 1
  17    8   10 2
  18    9   12 1
  19    9   15 2
  20   12   13 2
  21   12   17 1
  22   13   14 1
  23   13   34 1
  24   14   15 1
  25   15   16 1
  26   16   35 1
  27   16   36 1
  28   17   18 1
  29   17   37 1
  30   17   38 1
  31   18   19 1
  32   18   23 1
  33   19   20 1
  34   19   39 1
  35   19   40 1
  36   20   21 1
  37   20   41 1
  38   20   42 1
  39   21   22 1
  40   22   23 1
  41   22   43 1
  42   22   44 1
  43   23   45 1
  44   23   46 1
  45   24   25 ar
  46   24   47 1
  47   25   26 ar
  48   25   48 1
  49   26   27 ar
  50   26   29 1
  51   27   28 ar
  52   27   49 1
  53   28   50 1

#	End of record

