#	Name: ASD04880217
#	Creating user name:	WinNT
#	Creation time:	15. 06. 2019 20:53

#	Modifying user name:	WinNT
#	Modification time:	15. 06. 2019 20:53

#	Program:	/corina/corina34_cracker 3.40 0067  02.08.2006

@<TRIPOS>MOLECULE
ASD04880217
  44   47    0    0    0
SMALL
NO_CHARGES


@<TRIPOS>ATOM
   1 C1             0.0035     1.3757     0.2757 C.ar    
   2 C2             0.0180    -0.0014     0.2121 C.ar    
   3 C3             1.2354    -0.6857     0.1699 C.ar    
   4 C4             2.4354     0.0295     0.1923 C.ar    
   5 C5             2.4136     1.4100     0.2562 C.ar    
   6 C6             1.1949     2.0867     0.2981 C.ar    
   7 O7             3.4234     2.3285     0.2896 O.3     
   8 C8             2.8122     3.5842    -0.0604 C.3     
   9 O9             1.4436     3.4276     0.3581 O.3     
  10 C10            1.2537    -2.1582     0.1024 C.2     
  11 N11            2.3152    -2.8875     0.0600 N.2     
  12 N12            2.0631    -4.2566    -0.0000 N.am    
  13 C13            0.6076    -4.4730     0.0029 C.3     
  14 C14            0.0299    -3.0458     0.0788 C.3     
  15 C15            2.9995    -5.2246    -0.0522 C.2     
  16 C16            4.4255    -4.8657    -0.1750 C.ar    
  17 O17            2.6691    -6.3939     0.0019 O.2     
  18 C18            5.4072    -5.8563    -0.0845 C.ar    
  19 C19            6.7408    -5.5152    -0.2006 C.ar    
  20 C20            7.1046    -4.1856    -0.4076 C.ar    
  21 C21            6.1293    -3.2016    -0.4971 C.ar    
  22 C22            4.7970    -3.5357    -0.3879 C.ar    
  23 O23            7.6987    -6.4766    -0.1125 O.3     
  24 C24            7.2541    -7.8178     0.1008 C.3     
  25 O25            8.4161    -3.8519    -0.5216 O.3     
  26 C26            8.7183    -2.4713    -0.7327 C.3     
  27 H27           -0.9385     1.9032     0.3037 H       
  28 H28           -0.9115    -0.5511     0.1953 H       
  29 H29            3.3786    -0.4956     0.1601 H       
  30 H30            3.2861     4.4042     0.4791 H       
  31 H31            2.8671     3.7501    -1.1363 H       
  32 H32            0.2918    -4.9701    -0.9143 H       
  33 H33            0.3076    -5.0515     0.8767 H       
  34 H34           -0.5582    -2.9193     0.9878 H       
  35 H35           -0.5750    -2.8308    -0.8021 H       
  36 H36            5.1239    -6.8860     0.0763 H       
  37 H37            6.4153    -2.1725    -0.6569 H       
  38 H38            4.0403    -2.7683    -0.4579 H       
  39 H39            6.6980    -7.8718     1.0367 H       
  40 H40            6.6088    -8.1221    -0.7233 H       
  41 H41            8.1164    -8.4827     0.1516 H       
  42 H42            8.2489    -2.1338    -1.6568 H       
  43 H43            8.3383    -1.8842     0.1033 H       
  44 H44            9.7983    -2.3428    -0.8058 H       
@<TRIPOS>BOND
   1    1    2 ar
   2    1    6 ar
   3    1   27 1
   4    2    3 ar
   5    2   28 1
   6    3    4 ar
   7    3   10 1
   8    4    5 ar
   9    4   29 1
  10    5    6 ar
  11    5    7 1
  12    6    9 1
  13    7    8 1
  14    8    9 1
  15    8   30 1
  16    8   31 1
  17   10   11 2
  18   10   14 1
  19   11   12 1
  20   12   13 1
  21   12   15 am
  22   13   14 1
  23   13   32 1
  24   13   33 1
  25   14   34 1
  26   14   35 1
  27   15   16 1
  28   15   17 2
  29   16   18 ar
  30   16   22 ar
  31   18   19 ar
  32   18   36 1
  33   19   20 ar
  34   19   23 1
  35   20   21 ar
  36   20   25 1
  37   21   22 ar
  38   21   37 1
  39   22   38 1
  40   23   24 1
  41   24   39 1
  42   24   40 1
  43   24   41 1
  44   25   26 1
  45   26   42 1
  46   26   43 1
  47   26   44 1

#	End of record

