#	Name: ASD00740024
#	Creating user name:	WinNT
#	Creation time:	15. 06. 2019 18:37

#	Modifying user name:	WinNT
#	Modification time:	15. 06. 2019 18:37

#	Program:	/corina/corina34_cracker 3.40 0067  02.08.2006

@<TRIPOS>MOLECULE
ASD00740024
  83   88    0    0    0
SMALL
NO_CHARGES


@<TRIPOS>ATOM
   1 C1             0.6134     1.3753    -1.7322 C.ar    
   2 C2             0.7257     0.1169    -2.2898 C.ar    
   3 C3             1.7721    -0.1680    -3.1547 C.ar    
   4 C4             2.7061     0.8109    -3.4607 C.ar    
   5 C5             2.5951     2.0698    -2.9040 C.ar    
   6 C6             1.5479     2.3557    -2.0380 C.ar    
   7 O7             1.8826    -1.4076    -3.7026 O.3     
   8 C8             2.9844    -1.6313    -4.5846 C.3     
   9 N9             1.4344     3.6324    -1.4734 N.pl3   
  10 C10            2.5705     4.3482    -1.1506 C.ar    
  11 N11            2.4670     5.5984    -0.7136 N.ar    
  12 C12            3.5643     6.2834    -0.4036 C.ar    
  13 N13            4.7615     5.7130    -0.5327 N.ar    
  14 C14            4.8587     4.4690    -0.9679 C.ar    
  15 N15            3.7704     3.7842    -1.2718 N.ar    
  16 C16            3.4555     7.6769     0.0834 C.ar    
  17 C17            2.2203     8.3280     0.1043 C.ar    
  18 C18            2.1708     9.6317     0.5695 C.ar    
  19 C19            3.3334    10.2462     0.9960 C.ar    
  20 N20            4.4902     9.6130     0.9679 N.ar    
  21 C21            4.5911     8.3651     0.5378 C.ar    
  22 N22            5.8264     7.7364     0.5309 N.pl3   
  23 C23            6.9816     8.4621     0.8351 C.ar    
  24 C24            6.9261     9.8448     0.9388 C.ar    
  25 C25            8.0753    10.5615     1.2415 C.ar    
  26 C26            9.2770     9.8931     1.4397 C.ar    
  27 C27            9.3290     8.5162     1.3353 C.ar    
  28 C28            8.1859     7.7993     1.0398 C.ar    
  29 C29            8.2459     6.2972     0.9335 C.3     
  30 N30            8.0238    11.9550     1.3464 N.am    
  31 C31            8.7914    12.5913     2.2533 C.2     
  32 C32            8.6547    14.0508     2.4433 C.ar    
  33 O33            9.5961    11.9650     2.9149 O.2     
  34 C34            9.4482    14.7129     3.3817 C.ar    
  35 C35            9.3155    16.0752     3.5541 C.ar    
  36 C36            8.3983    16.7851     2.7996 C.ar    
  37 C37            7.6084    16.1348     1.8681 C.ar    
  38 C38            7.7357    14.7740     1.6811 C.ar    
  39 C39            8.2585    18.2730     2.9938 C.3     
  40 N40            9.1783    18.9735     2.0876 N.3     
  41 C41            8.9067    20.4177     2.0746 C.3     
  42 C42            9.9339    21.1193     1.1829 C.3     
  43 N43            9.8630    20.5607    -0.1746 N.3     
  44 C44           10.1346    19.1166    -0.1616 C.3     
  45 C45            9.1075    18.4150     0.7301 C.3     
  46 C46           10.7828    21.2613    -1.0808 C.3     
  47 H47           -0.2037     1.5982    -1.0620 H       
  48 H48           -0.0011    -0.6457    -2.0520 H       
  49 H49            3.5205     0.5884    -4.1342 H       
  50 H50            3.3227     2.8316    -3.1417 H       
  51 H51            2.9545    -2.6576    -4.9504 H       
  52 H52            2.9206    -0.9431    -5.4275 H       
  53 H53            3.9186    -1.4636    -4.0487 H       
  54 H54            0.5578     4.0138    -1.3090 H       
  55 H55            5.8305     4.0094    -1.0719 H       
  56 H56            1.3253     7.8273    -0.2344 H       
  57 H57            1.2316    10.1640     0.5986 H       
  58 H58            3.2939    11.2629     1.3583 H       
  59 H59            5.8892     6.7929     0.3149 H       
  60 H60            5.9908    10.3620     0.7839 H       
  61 H61           10.1717    10.4503     1.6753 H       
  62 H62           10.2646     7.9991     1.4895 H       
  63 H63            8.4744     6.0145    -0.0941 H       
  64 H64            9.0231     5.9168     1.5964 H       
  65 H65            7.2836     5.8739     1.2214 H       
  66 H66            7.4357    12.4637     0.7665 H       
  67 H67           10.1640    14.1599     3.9717 H       
  68 H68            9.9288    16.5887     4.2798 H       
  69 H69            6.8941    16.6947     1.2827 H       
  70 H70            7.1219    14.2684     0.9502 H       
  71 H71            7.2339    18.5733     2.7749 H       
  72 H72            8.4997    18.5290     4.0254 H       
  73 H73            7.9046    20.5957     1.6845 H       
  74 H74            8.9774    20.8102     3.0890 H       
  75 H75            9.7168    22.1869     1.1486 H       
  76 H76           10.9337    20.9640     1.5882 H       
  77 H77           10.0639    18.7241    -1.1760 H       
  78 H78           11.1367    18.9385     0.2285 H       
  79 H79            9.3246    17.3474     0.7644 H       
  80 H80            8.1076    18.5703     0.3247 H       
  81 H81           11.8037    21.1581    -0.7133 H       
  82 H82           10.7102    20.8281    -2.0783 H       
  83 H83           10.5169    22.3175    -1.1231 H       
@<TRIPOS>BOND
   1    1    2 ar
   2    1    6 ar
   3    1   47 1
   4    2    3 ar
   5    2   48 1
   6    3    4 ar
   7    3    7 1
   8    4    5 ar
   9    4   49 1
  10    5    6 ar
  11    5   50 1
  12    6    9 1
  13    7    8 1
  14    8   51 1
  15    8   52 1
  16    8   53 1
  17    9   10 1
  18    9   54 1
  19   10   11 ar
  20   10   15 ar
  21   11   12 ar
  22   12   13 ar
  23   12   16 1
  24   13   14 ar
  25   14   15 ar
  26   14   55 1
  27   16   17 ar
  28   16   21 ar
  29   17   18 ar
  30   17   56 1
  31   18   19 ar
  32   18   57 1
  33   19   20 ar
  34   19   58 1
  35   20   21 ar
  36   21   22 1
  37   22   23 1
  38   22   59 1
  39   23   24 ar
  40   23   28 ar
  41   24   25 ar
  42   24   60 1
  43   25   26 ar
  44   25   30 1
  45   26   27 ar
  46   26   61 1
  47   27   28 ar
  48   27   62 1
  49   28   29 1
  50   29   63 1
  51   29   64 1
  52   29   65 1
  53   30   31 am
  54   30   66 1
  55   31   32 1
  56   31   33 2
  57   32   34 ar
  58   32   38 ar
  59   34   35 ar
  60   34   67 1
  61   35   36 ar
  62   35   68 1
  63   36   37 ar
  64   36   39 1
  65   37   38 ar
  66   37   69 1
  67   38   70 1
  68   39   40 1
  69   39   71 1
  70   39   72 1
  71   40   41 1
  72   40   45 1
  73   41   42 1
  74   41   73 1
  75   41   74 1
  76   42   43 1
  77   42   75 1
  78   42   76 1
  79   43   44 1
  80   43   46 1
  81   44   45 1
  82   44   77 1
  83   44   78 1
  84   45   79 1
  85   45   80 1
  86   46   81 1
  87   46   82 1
  88   46   83 1

#	End of record

