#	Name: ASD02038786
#	Creating user name:	WinNT
#	Creation time:	15. 06. 2019 20:17

#	Modifying user name:	WinNT
#	Modification time:	15. 06. 2019 20:17

#	Program:	/corina/corina34_cracker 3.40 0067  02.08.2006

@<TRIPOS>MOLECULE
ASD02038786
  45   47    0    0    0
SMALL
NO_CHARGES


@<TRIPOS>ATOM
   1 C1            -1.2847    -0.8281     0.4557 C.2     
   2 C2            -0.0541    -0.0230     0.3004 C.2     
   3 N3             1.1377    -0.6351     0.1543 N.am    
   4 C4             1.2277    -2.0945     0.2451 C.3     
   5 C5             1.1986    -2.6867    -1.1404 C.ar    
   6 C6             2.3433     0.1590    -0.0953 C.3     
   7 O7            -0.1175     1.1909     0.3046 O.2     
   8 N8            -1.3542    -2.1716     0.4788 N.2     
   9 C9            -2.6135    -2.4929     0.6326 C.2     
  10 N10           -3.3199    -1.3496     0.7043 N.pl3   
  11 N11           -2.5040    -0.3576     0.6013 N.2     
  12 C12            2.3814    -3.0172    -1.7756 C.ar    
  13 C13            2.1445     1.0108    -1.3528 C.3     
  14 C14            3.3771     1.8946    -1.5611 C.3     
  15 O15            3.5809     2.7062    -0.4027 O.3     
  16 C16            3.8191     1.9642     0.7951 C.3     
  17 C17            2.6043     1.0832     1.0980 C.3     
  18 C18           -4.7713    -1.2496     0.8763 C.3     
  19 C19           -0.0103    -2.9044    -1.7732 C.ar    
  20 C20           -0.0367    -3.4486    -3.0463 C.ar    
  21 C21            1.1485    -3.7739    -3.6835 C.ar    
  22 C22            2.3563    -3.5601    -3.0465 C.ar    
  23 C23            3.6467    -3.9136    -3.7401 C.3     
  24 F24            3.3669    -4.4372    -5.0069 F       
  25 F25            4.4342    -2.7651    -3.8737 F       
  26 F26            4.3368    -4.8668    -2.9836 F       
  27 F27           -1.2181    -3.6623    -3.6658 F       
  28 H28            2.1591    -2.3711     0.7390 H       
  29 H29            0.3841    -2.4754     0.8208 H       
  30 H30            3.1953    -0.5061    -0.2363 H       
  31 H31           -3.0135    -3.4943     0.6910 H       
  32 H32            3.3256    -2.8508    -1.2784 H       
  33 H33            2.0131     0.3595    -2.2169 H       
  34 H34            1.2621     1.6391    -1.2315 H       
  35 H35            4.2524     1.2654    -1.7227 H       
  36 H36            3.2233     2.5339    -2.4304 H       
  37 H37            4.7002     1.3360     0.6643 H       
  38 H38            3.9837     2.6537     1.6231 H       
  39 H39            1.7312     1.7130     1.2689 H       
  40 H40            2.8017     0.4837     1.9867 H       
  41 H41           -5.0095    -1.2136     1.9394 H       
  42 H42           -5.1330    -0.3426     0.3920 H       
  43 H43           -5.2513    -2.1183     0.4257 H       
  44 H44           -0.9343    -2.6505    -1.2749 H       
  45 H45            1.1291    -4.1984    -4.6764 H       
@<TRIPOS>BOND
   1    1    2 1
   2    1    8 1
   3    1   11 2
   4    2    3 am
   5    2    7 2
   6    3    4 1
   7    3    6 1
   8    4    5 1
   9    4   28 1
  10    4   29 1
  11    5   12 ar
  12    5   19 ar
  13    6   13 1
  14    6   17 1
  15    6   30 1
  16    8    9 2
  17    9   10 1
  18    9   31 1
  19   10   11 1
  20   10   18 1
  21   12   22 ar
  22   12   32 1
  23   13   14 1
  24   13   33 1
  25   13   34 1
  26   14   15 1
  27   14   35 1
  28   14   36 1
  29   15   16 1
  30   16   17 1
  31   16   37 1
  32   16   38 1
  33   17   39 1
  34   17   40 1
  35   18   41 1
  36   18   42 1
  37   18   43 1
  38   19   20 ar
  39   19   44 1
  40   20   21 ar
  41   20   27 1
  42   21   22 ar
  43   21   45 1
  44   22   23 1
  45   23   24 1
  46   23   25 1
  47   23   26 1

#	End of record

