#	Name: ASD03093004
#	Creating user name:	WinNT
#	Creation time:	15. 06. 2019 20:33

#	Modifying user name:	WinNT
#	Modification time:	15. 06. 2019 20:33

#	Program:	/corina/corina34_cracker 3.40 0067  02.08.2006

@<TRIPOS>MOLECULE
ASD03093004
  61   65    0    0    0
SMALL
NO_CHARGES


@<TRIPOS>ATOM
   1 C1            -0.0167     1.3768     0.0096 C.ar    
   2 C2             0.0021    -0.0041     0.0020 C.ar    
   3 C3             1.2094    -0.6776    -0.0133 C.ar    
   4 C4             2.3942     0.0319    -0.0209 C.ar    
   5 C5             2.3775     1.4167    -0.0132 C.ar    
   6 C6             1.1705     2.0900     0.0021 C.ar    
   7 C7             3.5184     2.4115    -0.0183 C.3     
   8 C8             2.8834     3.7521    -0.4447 C.3     
   9 C9             1.4177     3.5834     0.0084 C.3     
  10 N10            3.5180     4.8738     0.2519 N.am    
  11 C11            3.4997     6.1049    -0.2964 C.2     
  12 C12            4.1525     7.2587     0.4202 C.3     
  13 O13            2.9578     6.2840    -1.3666 O.2     
  14 N14            3.9968     8.4788    -0.3757 N.am    
  15 N15            4.8958     8.7802    -1.2413 N.2     
  16 C16            4.8216     9.8497    -1.9838 C.2     
  17 C17            3.7326    10.7283    -1.8604 C.2     
  18 C18            2.7612    10.4318    -0.9469 C.2     
  19 C19            2.9116     9.2531    -0.1848 C.2     
  20 O20            2.0713     8.9436     0.6447 O.2     
  21 C21            1.5657    11.3306    -0.7626 C.3     
  22 C22            0.4204    10.8211    -1.5991 C.2     
  23 C23            5.9121    10.1453    -2.9810 C.3     
  24 C24            7.0326     9.1141    -2.8322 C.3     
  25 C25            8.1398     9.4142    -3.8446 C.3     
  26 C26            7.5675     9.3445    -5.2618 C.3     
  27 C27            6.4470    10.3757    -5.4107 C.3     
  28 C28            5.3399    10.0756    -4.3983 C.3     
  29 C29           -0.5688     9.8940    -1.1981 C.2     
  30 C30           -1.3918     9.7235    -2.2483 C.2     
  31 O31           -0.9560    10.4939    -3.2584 O.3     
  32 C32            0.1398    11.1656    -2.8688 C.2     
  33 H33           -0.9602     1.9023     0.0169 H       
  34 H34           -0.9255    -0.5573     0.0084 H       
  35 H35            1.2259    -1.7574    -0.0189 H       
  36 H36            3.3369    -0.4950    -0.0326 H       
  37 H37            3.9496     2.4976     0.9791 H       
  38 H38            4.2809     2.1089    -0.7360 H       
  39 H39            2.9424     3.8824    -1.5253 H       
  40 H40            0.7459     4.0809    -0.6911 H       
  41 H41            1.2838     3.9847     1.0130 H       
  42 H42            3.9514     4.7305     1.1078 H       
  43 H43            3.6799     7.3966     1.3927 H       
  44 H44            5.2129     7.0477     0.5581 H       
  45 H45            3.6651    11.6158    -2.4720 H       
  46 H46            1.2740    11.3364     0.2877 H       
  47 H47            1.8210    12.3434    -1.0744 H       
  48 H48            6.3104    11.1434    -2.7987 H       
  49 H49            7.4403     9.1638    -1.8225 H       
  50 H50            6.6343     8.1160    -3.0145 H       
  51 H51            8.5380    10.4124    -3.6623 H       
  52 H52            8.9380     8.6796    -3.7385 H       
  53 H53            8.3562     9.5583    -5.9831 H       
  54 H54            7.1692     8.3464    -5.4441 H       
  55 H55            6.8453    11.3738    -5.2284 H       
  56 H56            6.0393    10.3260    -6.4204 H       
  57 H57            4.9416     9.0774    -4.5806 H       
  58 H58            4.5416    10.8102    -4.5043 H       
  59 H59           -0.6480     9.4142    -0.2337 H       
  60 H60           -2.2562     9.0766    -2.2748 H       
  61 H61            0.7039    11.8595    -3.4743 H       
@<TRIPOS>BOND
   1    1    2 ar
   2    1    6 ar
   3    1   33 1
   4    2    3 ar
   5    2   34 1
   6    3    4 ar
   7    3   35 1
   8    4    5 ar
   9    4   36 1
  10    5    6 ar
  11    5    7 1
  12    6    9 1
  13    7    8 1
  14    7   37 1
  15    7   38 1
  16    8    9 1
  17    8   10 1
  18    8   39 1
  19    9   40 1
  20    9   41 1
  21   10   11 am
  22   10   42 1
  23   11   12 1
  24   11   13 2
  25   12   14 1
  26   12   43 1
  27   12   44 1
  28   14   15 1
  29   14   19 am
  30   15   16 2
  31   16   17 1
  32   16   23 1
  33   17   18 2
  34   17   45 1
  35   18   19 1
  36   18   21 1
  37   19   20 2
  38   21   22 1
  39   21   46 1
  40   21   47 1
  41   22   29 1
  42   22   32 2
  43   23   24 1
  44   23   28 1
  45   23   48 1
  46   24   25 1
  47   24   49 1
  48   24   50 1
  49   25   26 1
  50   25   51 1
  51   25   52 1
  52   26   27 1
  53   26   53 1
  54   26   54 1
  55   27   28 1
  56   27   55 1
  57   27   56 1
  58   28   57 1
  59   28   58 1
  60   29   30 2
  61   29   59 1
  62   30   31 1
  63   30   60 1
  64   31   32 1
  65   32   61 1

#	End of record

