#	Name: ASD01901151
#	Creating user name:	WinNT
#	Creation time:	15. 06. 2019 19:53

#	Modifying user name:	WinNT
#	Modification time:	15. 06. 2019 19:53

#	Program:	/corina/corina34_cracker 3.40 0067  02.08.2006

@<TRIPOS>MOLECULE
ASD01901151
  50   53    0    0    0
SMALL
NO_CHARGES


@<TRIPOS>ATOM
   1 C1            -0.0166     1.3750     0.0096 C.ar    
   2 C2             0.0021    -0.0041     0.0020 C.ar    
   3 C3             1.2078    -0.6830    -0.0131 C.ar    
   4 C4             2.4027     0.0149    -0.0208 C.ar    
   5 C5             2.3997     1.3941    -0.0129 C.ar    
   6 C6             1.1860     2.0866     0.0019 C.ar    
   7 C7             1.1748     3.5185     0.0093 C.1     
   8 C8             1.1655     4.6925     0.0153 C.1     
   9 C9             1.1543     6.1244     0.0226 C.ar    
  10 C10            2.3583     6.8345     0.0149 C.ar    
  11 C11            2.3436     8.2144     0.0215 C.ar    
  12 C12            1.1325     8.8988     0.0358 C.ar    
  13 C13           -0.0678     8.1953     0.0435 C.ar    
  14 C14           -0.0608     6.8154     0.0316 C.ar    
  15 N15            1.1215    10.3012     0.0430 N.am    
  16 C16            1.1058    10.9684    -1.1230 C.2     
  17 N17            0.8552    12.2870    -1.1738 N.am    
  18 C18            0.4701    13.0248     0.0306 C.3     
  19 C19            1.2183    12.4623     1.2408 C.3     
  20 C20            1.1212    10.9575     1.2174 C.2     
  21 O21            1.3237    10.3651    -2.1554 O.2     
  22 F22            3.5068     8.9015     0.0146 F       
  23 O23            1.0478    10.3384     2.2573 O.2     
  24 F24           -1.2416     8.8640     0.0574 F       
  25 C25            0.9692    12.9961    -2.4507 C.3     
  26 C26            0.8153    14.5057    -0.1417 C.3     
  27 C27           -1.0381    12.8862     0.2547 C.3     
  28 C28           -1.7706    13.5078    -0.9378 C.3     
  29 C29           -1.3444    14.9716    -1.0739 C.3     
  30 O30            0.0733    15.0402    -1.2398 O.3     
  31 H31           -0.9584     1.9035     0.0169 H       
  32 H32           -0.9266    -0.5554     0.0083 H       
  33 H33            1.2163    -1.7630    -0.0187 H       
  34 H34            3.3399    -0.5217    -0.0326 H       
  35 H35            3.3330     1.9375    -0.0182 H       
  36 H36            3.2989     6.3039     0.0042 H       
  37 H37           -0.9929     6.2700     0.0331 H       
  38 H38            2.2645    12.7651     1.1962 H       
  39 H39            0.7666    12.8412     2.1576 H       
  40 H40            1.2633    12.2943    -3.2310 H       
  41 H41            0.0077    13.4415    -2.7061 H       
  42 H42            1.7215    13.7803    -2.3649 H       
  43 H43            0.5586    15.0473     0.7688 H       
  44 H44            1.8823    14.6100    -0.3385 H       
  45 H45           -1.3006    11.8313     0.3359 H       
  46 H46           -1.3214    13.4064     1.1697 H       
  47 H47           -1.5122    12.9661    -1.8477 H       
  48 H48           -2.8468    13.4546    -0.7734 H       
  49 H49           -1.8338    15.4135    -1.9418 H       
  50 H50           -1.6322    15.5190    -0.1763 H       
@<TRIPOS>BOND
   1    1    2 ar
   2    1    6 ar
   3    1   31 1
   4    2    3 ar
   5    2   32 1
   6    3    4 ar
   7    3   33 1
   8    4    5 ar
   9    4   34 1
  10    5    6 ar
  11    5   35 1
  12    6    7 1
  13    7    8 3
  14    8    9 1
  15    9   10 ar
  16    9   14 ar
  17   10   11 ar
  18   10   36 1
  19   11   12 ar
  20   11   22 1
  21   12   13 ar
  22   12   15 1
  23   13   14 ar
  24   13   24 1
  25   14   37 1
  26   15   16 am
  27   15   20 am
  28   16   17 am
  29   16   21 2
  30   17   18 1
  31   17   25 1
  32   18   19 1
  33   18   27 1
  34   18   26 1
  35   19   20 1
  36   19   38 1
  37   19   39 1
  38   20   23 2
  39   25   40 1
  40   25   41 1
  41   25   42 1
  42   26   30 1
  43   26   43 1
  44   26   44 1
  45   27   28 1
  46   27   45 1
  47   27   46 1
  48   28   29 1
  49   28   47 1
  50   28   48 1
  51   29   30 1
  52   29   49 1
  53   29   50 1

#	End of record

