#	Name: ASD01812581
#	Creating user name:	WinNT
#	Creation time:	15. 06. 2019 19:28

#	Modifying user name:	WinNT
#	Modification time:	15. 06. 2019 19:28

#	Program:	/corina/corina34_cracker 3.40 0067  02.08.2006

@<TRIPOS>MOLECULE
ASD01812581
  67   72    0    0    0
SMALL
NO_CHARGES


@<TRIPOS>ATOM
   1 O1            -0.0173     1.4248     0.0099 O.3     
   2 C2             0.0021    -0.0041     0.0020 C.3     
   3 H3             0.5123    -0.3556    -0.8948 H       
   4 C4             0.7421    -0.5109     1.2415 C.3     
   5 C5             0.7628    -2.0407     1.2331 C.3     
   6 C6            -0.6726    -2.5703     1.2440 C.3     
   7 C7            -1.4126    -2.0635     0.0045 C.3     
   8 C8            -1.4333    -0.5336     0.0129 C.3     
   9 H9            -1.9435    -0.1821     0.9097 H       
  10 N10           -2.1419    -0.0483    -1.1740 N.am    
  11 C11           -3.3481     0.7873    -1.1703 C.3     
  12 C12           -3.6994     1.0239    -2.6175 C.ar    
  13 C13           -2.7457     0.3596    -3.3724 C.ar    
  14 C14           -2.8108     0.3981    -4.7791 C.ar    
  15 C15           -3.7981     1.0791    -5.4131 C.ar    
  16 C16           -3.8456     1.1043    -6.9192 C.3     
  17 N17           -3.2816     2.3704    -7.4057 N.3     
  18 C18           -1.8495     2.4627    -7.0945 C.3     
  19 C19           -1.3298     3.8486    -7.4836 C.3     
  20 C20           -1.5614     4.0734    -8.9804 C.3     
  21 F21           -0.8373     3.1267    -9.7129 F       
  22 C22           -3.0544     3.9240    -9.2859 C.3     
  23 C23           -3.5240     2.5360    -8.8446 C.3     
  24 C24           -1.1049     5.4590    -9.3581 C.ar    
  25 C25           -0.1114     5.6162   -10.3055 C.ar    
  26 C26            0.3011     6.8955   -10.6463 C.ar    
  27 C27           -0.3040     7.9731   -10.0183 C.ar    
  28 C28           -1.2915     7.7382    -9.0800 C.ar    
  29 N29           -1.6620     6.5078    -8.7844 N.ar    
  30 C30           -4.7781     1.7615    -4.6692 C.ar    
  31 C31           -5.8088     2.4723    -5.3046 C.ar    
  32 C32           -6.7422     3.1225    -4.5558 C.ar    
  33 C33           -6.6916     3.0947    -3.1638 C.ar    
  34 C34           -5.7078     2.4164    -2.5122 C.ar    
  35 C35           -4.7265     1.7319    -3.2512 C.ar    
  36 C36           -1.7932    -0.2888    -2.4496 C.2     
  37 O37           -0.8322    -0.9487    -2.7943 O.2     
  38 H38            0.8606     1.8301     0.0037 H       
  39 H39            1.7647    -0.1336     1.2338 H       
  40 H40            0.2319    -0.1594     2.1383 H       
  41 H41            1.2730    -2.3923     0.3363 H       
  42 H42            1.2900    -2.4018     2.1162 H       
  43 H43           -0.6578    -3.6602     1.2380 H       
  44 H44           -1.1828    -2.2188     2.1408 H       
  45 H45           -0.9024    -2.4150    -0.8923 H       
  46 H46           -2.4352    -2.4408     0.0122 H       
  47 H47           -4.1630     0.2671    -0.6669 H       
  48 H48           -3.1451     1.7363    -0.6739 H       
  49 H49           -2.0640    -0.1215    -5.3610 H       
  50 H50           -3.2641     0.2716    -7.3150 H       
  51 H51           -4.8799     1.0156    -7.2516 H       
  52 H52           -1.6991     2.3051    -6.0265 H       
  53 H53           -1.3064     1.7010    -7.6539 H       
  54 H54           -1.8629     4.6101    -6.9144 H       
  55 H55           -0.2634     3.9114    -7.2669 H       
  56 H56           -3.6146     4.6868    -8.7451 H       
  57 H57           -3.2201     4.0408   -10.3569 H       
  58 H58           -2.9731     1.7739    -9.3957 H       
  59 H59           -4.5899     2.4316    -9.0477 H       
  60 H60            0.3383     4.7535   -10.7745 H       
  61 H61            1.0757     7.0487   -11.3832 H       
  62 H62           -0.0074     8.9833   -10.2588 H       
  63 H63           -1.7676     8.5723    -8.5859 H       
  64 H64           -5.8610     2.5037    -6.3829 H       
  65 H65           -7.5333     3.6681    -5.0485 H       
  66 H66           -7.4437     3.6194    -2.5934 H       
  67 H67           -5.6811     2.4035    -1.4326 H       
@<TRIPOS>BOND
   1    1    2 1
   2    1   38 1
   3    2    3 1
   4    2    8 1
   5    2    4 1
   6    4    5 1
   7    4   39 1
   8    4   40 1
   9    5    6 1
  10    5   41 1
  11    5   42 1
  12    6    7 1
  13    6   43 1
  14    6   44 1
  15    7    8 1
  16    7   45 1
  17    7   46 1
  18    8    9 1
  19    8   10 1
  20   10   36 am
  21   10   11 1
  22   11   12 1
  23   11   47 1
  24   11   48 1
  25   12   35 ar
  26   12   13 ar
  27   13   14 ar
  28   13   36 1
  29   14   15 ar
  30   14   49 1
  31   15   16 1
  32   15   30 ar
  33   16   17 1
  34   16   50 1
  35   16   51 1
  36   17   23 1
  37   17   18 1
  38   18   19 1
  39   18   52 1
  40   18   53 1
  41   19   20 1
  42   19   54 1
  43   19   55 1
  44   20   21 1
  45   20   22 1
  46   20   24 1
  47   22   23 1
  48   22   56 1
  49   22   57 1
  50   23   58 1
  51   23   59 1
  52   24   29 ar
  53   24   25 ar
  54   25   26 ar
  55   25   60 1
  56   26   27 ar
  57   26   61 1
  58   27   28 ar
  59   27   62 1
  60   28   29 ar
  61   28   63 1
  62   30   35 ar
  63   30   31 ar
  64   31   32 ar
  65   31   64 1
  66   32   33 ar
  67   32   65 1
  68   33   34 ar
  69   33   66 1
  70   34   35 ar
  71   34   67 1
  72   36   37 2

#	End of record

