#	Name: ASD07300681
#	Creating user name:	WinNT
#	Creation time:	15. 06. 2019 21:10

#	Modifying user name:	WinNT
#	Modification time:	15. 06. 2019 21:10

#	Program:	/corina/corina34_cracker 3.40 0067  02.08.2006

@<TRIPOS>MOLECULE
ASD07300681
  42   43    0    0    0
SMALL
NO_CHARGES


@<TRIPOS>ATOM
   1 C1            -0.0168     1.3876     0.0097 C.ar    
   2 C2             0.0021    -0.0041     0.0020 C.ar    
   3 C3             1.2046    -0.6595    -0.0130 C.ar    
   4 C4             2.3807     0.1017    -0.0201 C.ar    
   5 C5             2.2870     1.4923    -0.0117 C.ar    
   6 N6             1.1102     2.0834     0.0026 N.ar    
   7 O7             5.0756     0.0235    -0.0456 O.3     
   8 B8             3.7842    -0.6016    -0.0367 Du      
   9 O9             4.0565    -2.0102    -0.0459 O.3     
  10 C10            5.1903    -2.1688     0.8328 C.3     
  11 C11            5.8812    -0.7900     0.8329 C.3     
  12 C12            7.3073    -0.9082     0.2914 C.3     
  13 C13            5.8929    -0.1997     2.2445 C.3     
  14 C14            4.7243    -2.5318     2.2442 C.3     
  15 C15            6.1387    -3.2403     0.2911 C.3     
  16 O16           -1.2043     2.0395     0.0188 O.3     
  17 C17           -1.1603     3.4678     0.0264 C.3     
  18 C18           -2.5864     4.0219     0.0361 C.3     
  19 O19           -3.2308     3.6571     1.2582 O.3     
  20 C20           -4.5754     4.1281     1.3693 C.3     
  21 H21           -0.9227    -0.5618     0.0082 H       
  22 H22            1.2453    -1.7387    -0.0188 H       
  23 H23            3.1866     2.0898    -0.0171 H       
  24 H24            7.7611     0.0817     0.2437 H       
  25 H25            7.8950    -1.5458     0.9518 H       
  26 H26            7.2818    -1.3447    -0.7070 H       
  27 H27            4.8718    -0.1375     2.6207 H       
  28 H28            6.4837    -0.8389     2.9007 H       
  29 H29            6.3316     0.7977     2.2176 H       
  30 H30            4.1879    -3.4803     2.2170 H       
  31 H31            5.5899    -2.6225     2.9004 H       
  32 H32            4.0632    -1.7512     2.6205 H       
  33 H33            6.4732    -2.9583    -0.7073 H       
  34 H34            7.0012    -3.3295     0.9516 H       
  35 H35            5.6173    -4.1963     0.2431 H       
  36 H36           -0.6313     3.8102     0.9157 H       
  37 H37           -0.6397     3.8199    -0.8642 H       
  38 H38           -2.5546     5.1082    -0.0477 H       
  39 H39           -3.1425     3.6087    -0.8054 H       
  40 H40           -4.5849     5.2166     1.3132 H       
  41 H41           -5.1728     3.7170     0.5555 H       
  42 H42           -4.9941     3.8098     2.3241 H       
@<TRIPOS>BOND
   1    1    2 ar
   2    1    6 ar
   3    1   16 1
   4    2    3 ar
   5    2   21 1
   6    3    4 ar
   7    3   22 1
   8    4    5 ar
   9    4    8 1
  10    5    6 ar
  11    5   23 1
  12    7    8 1
  13    7   11 1
  14    8    9 1
  15    9   10 1
  16   10   11 1
  17   10   14 1
  18   10   15 1
  19   11   12 1
  20   11   13 1
  21   12   24 1
  22   12   25 1
  23   12   26 1
  24   13   27 1
  25   13   28 1
  26   13   29 1
  27   14   30 1
  28   14   31 1
  29   14   32 1
  30   15   33 1
  31   15   34 1
  32   15   35 1
  33   16   17 1
  34   17   18 1
  35   17   36 1
  36   17   37 1
  37   18   19 1
  38   18   38 1
  39   18   39 1
  40   19   20 1
  41   20   40 1
  42   20   41 1
  43   20   42 1

#	End of record

