#	Name: ASD00840070
#	Creating user name:	WinNT
#	Creation time:	15. 06. 2019 18:37

#	Modifying user name:	WinNT
#	Modification time:	15. 06. 2019 18:37

#	Program:	/corina/corina34_cracker 3.40 0067  02.08.2006

@<TRIPOS>MOLECULE
ASD00840070
  87   92    0    0    0
SMALL
NO_CHARGES


@<TRIPOS>ATOM
   1 N1            -0.0140     1.3153     0.0263 N.ar    
   2 C2             0.0029    -0.0070     0.0117 C.ar    
   3 C3             1.2072    -0.6993    -0.0062 C.ar    
   4 C4             2.3934     0.0133    -0.0085 C.ar    
   5 C5             2.3327     1.4002     0.0072 C.ar    
   6 C6             1.1004     2.0221     0.0245 C.ar    
   7 C7             1.2216    -2.2061    -0.0223 C.3     
   8 C8             0.4762    -2.7307    -1.2311 C.2     
   9 N9             2.5989    -2.7051    -0.0122 N.am    
  10 C10            3.4467    -2.3635    -1.0028 C.2     
  11 N11            4.7402    -2.7372    -0.9415 N.am    
  12 O12            3.0445    -1.7183    -1.9516 O.2     
  13 C13            5.2676    -3.4159     0.2500 C.3     
  14 C14            6.4984    -2.6520     0.7484 C.3     
  15 C15            7.5064    -2.5152    -0.3949 C.3     
  16 C16            6.8759    -1.7204    -1.5408 C.3     
  17 C17            5.6481    -2.4789    -2.0674 C.3     
  18 C18            8.7519    -1.7828     0.1085 C.3     
  19 C19            9.3849    -2.5776     1.2539 C.3     
  20 C20           10.6632    -1.8721     1.7124 C.3     
  21 N21           11.5998    -1.7725     0.5858 N.3     
  22 C22           11.0321    -0.9734    -0.5076 C.3     
  23 C23            9.7648    -1.6521    -1.0324 C.3     
  24 H24           12.4870    -1.3967     0.8853 H       
  25 O25            0.7570    -2.5295    -2.3937 O.2     
  26 N26           -0.5550    -3.4608    -0.7740 N.am    
  27 C27            0.4476    -2.7557     1.1539 C.ar    
  28 C28           -0.6005    -3.4957     0.6207 C.ar    
  29 C29            0.6111    -2.6432     2.5162 C.ar    
  30 C30           -0.2762    -3.2728     3.3730 C.ar    
  31 C31           -1.3258    -4.0139     2.8539 C.ar    
  32 C32           -1.4904    -4.1271     1.4866 C.ar    
  33 Cl33          -0.0739    -3.1345     5.0917 Cl      
  34 F34           -2.1922    -4.6286     3.6885 F       
  35 C35           -1.0191    -5.8476    -2.0632 C.ar    
  36 C36            0.1591    -6.0097    -2.7771 C.ar    
  37 C37           -1.6972    -6.9549    -1.5909 C.ar    
  38 C38           -1.2021    -8.2235    -1.8288 C.ar    
  39 C39           -0.0277    -8.3878    -2.5402 C.ar    
  40 C40            0.6537    -7.2841    -3.0149 C.ar    
  41 H41            0.3570    -9.3799    -2.7248 H       
  42 O42            0.8277    -4.9222    -3.2431 O.3     
  43 C43            2.0339    -5.1646    -3.9700 C.3     
  44 C44            2.6405    -3.8309    -4.4108 C.3     
  45 O45           -1.1671    -0.6940     0.0146 O.3     
  46 C46           -3.5776    -0.8655     0.0342 C.3     
  47 C47           -2.3711     0.0754     0.0337 C.3     
  48 S48           -1.6466    -4.2307    -1.7528 S.o2    
  49 O49           -2.8278    -4.3999    -0.9813 O.2     
  50 O50           -1.6228    -3.5452    -2.9974 O.2     
  51 H51            3.3447    -0.4978    -0.0219 H       
  52 H52            3.2399     1.9862     0.0062 H       
  53 H53            1.0477     3.1007     0.0364 H       
  54 H54            2.9008    -3.2813     0.7073 H       
  55 H55            4.5060    -3.4302     1.0297 H       
  56 H56            5.5504    -4.4370    -0.0062 H       
  57 H57            6.1982    -1.6611     1.0892 H       
  58 H58            6.9560    -3.1979     1.5735 H       
  59 H59            7.7875    -3.5060    -0.7518 H       
  60 H60            6.5721    -0.7384    -1.1784 H       
  61 H61            7.6022    -1.6033    -2.3451 H       
  62 H62            5.9645    -3.4222    -2.5124 H       
  63 H63            5.1373    -1.8727    -2.8155 H       
  64 H64            8.4724    -0.7911     0.4641 H       
  65 H65            8.6837    -2.6375     2.0863 H       
  66 H66            9.6276    -3.5826     0.9088 H       
  67 H67           10.4178    -0.8722     2.0702 H       
  68 H68           11.1240    -2.4432     2.5184 H       
  69 H69           10.7849     0.0223    -0.1394 H       
  70 H70           11.7608    -0.8917    -1.3140 H       
  71 H71           10.0135    -2.6425    -1.4134 H       
  72 H72            9.3350    -1.0507    -1.8335 H       
  73 H73            1.4308    -2.0649     2.9163 H       
  74 H74           -2.3107    -4.7059     1.0886 H       
  75 H75           -2.6146    -6.8292    -1.0350 H       
  76 H76           -1.7333    -9.0877    -1.4581 H       
  77 H77            1.5705    -7.4130    -3.5711 H       
  78 H78            2.7426    -5.6929    -3.3322 H       
  79 H79            1.8132    -5.7713    -4.8483 H       
  80 H80            3.5606    -4.0158    -4.9652 H       
  81 H81            1.9319    -3.3026    -5.0486 H       
  82 H82            2.8612    -3.2242    -3.5325 H       
  83 H83           -3.5561    -1.4843    -0.8629 H       
  84 H84           -3.5402    -1.5038     0.9169 H       
  85 H85           -4.4960    -0.2786     0.0488 H       
  86 H86           -2.3926     0.6943     0.9308 H       
  87 H87           -2.4085     0.7137    -0.8490 H       
@<TRIPOS>BOND
   1    1    2 ar
   2    1    6 ar
   3    2    3 ar
   4    2   45 1
   5    3    4 ar
   6    3    7 1
   7    4    5 ar
   8    4   51 1
   9    5    6 ar
  10    5   52 1
  11    6   53 1
  12    7    8 1
  13    7    9 1
  14    7   27 1
  15    8   25 2
  16    8   26 am
  17    9   10 am
  18    9   54 1
  19   10   11 am
  20   10   12 2
  21   11   13 1
  22   11   17 1
  23   13   14 1
  24   13   55 1
  25   13   56 1
  26   14   15 1
  27   14   57 1
  28   14   58 1
  29   15   16 1
  30   15   18 1
  31   15   59 1
  32   16   17 1
  33   16   60 1
  34   16   61 1
  35   17   62 1
  36   17   63 1
  37   18   19 1
  38   18   23 1
  39   18   64 1
  40   19   20 1
  41   19   65 1
  42   19   66 1
  43   20   21 1
  44   20   67 1
  45   20   68 1
  46   21   22 1
  47   21   24 1
  48   22   23 1
  49   22   69 1
  50   22   70 1
  51   23   71 1
  52   23   72 1
  53   26   48 am
  54   26   28 1
  55   27   28 ar
  56   27   29 ar
  57   28   32 ar
  58   29   30 ar
  59   29   73 1
  60   30   31 ar
  61   30   33 1
  62   31   32 ar
  63   31   34 1
  64   32   74 1
  65   35   36 ar
  66   35   37 ar
  67   35   48 1
  68   36   42 1
  69   36   40 ar
  70   37   38 ar
  71   37   75 1
  72   38   39 ar
  73   38   76 1
  74   39   40 ar
  75   39   41 1
  76   40   77 1
  77   42   43 1
  78   43   44 1
  79   43   78 1
  80   43   79 1
  81   44   80 1
  82   44   81 1
  83   44   82 1
  84   45   47 1
  85   46   47 1
  86   46   83 1
  87   46   84 1
  88   46   85 1
  89   47   86 1
  90   47   87 1
  91   48   49 2
  92   48   50 2

#	End of record

