#	Name: ASD03080068
#	Creating user name:	WinNT
#	Creation time:	15. 06. 2019 20:26

#	Modifying user name:	WinNT
#	Modification time:	15. 06. 2019 20:26

#	Program:	/corina/corina34_cracker 3.40 0067  02.08.2006

@<TRIPOS>MOLECULE
ASD03080068
  40   43    0    0    0
SMALL
NO_CHARGES


@<TRIPOS>ATOM
   1 O1            -0.0144     1.2085     0.0087 O.3     
   2 N2             0.0021    -0.0041     0.0020 N.2     
   3 C3             1.2349    -0.4419    -0.0121 C.2     
   4 N4             2.0455     0.6369    -0.0141 N.2     
   5 C5             1.2410     1.6828    -0.0008 C.2     
   6 C6             3.0160    -2.1949    -0.0380 C.ar    
   7 C7             1.6630    -1.8633    -0.0238 C.ar    
   8 C8             0.7155    -2.8900    -0.0203 C.ar    
   9 C9             1.1659    -4.1993    -0.0312 C.ar    
  10 C10            2.5262    -4.4464    -0.0450 C.ar    
  11 N11            3.3973    -3.4556    -0.0476 N.ar    
  12 C12            1.6452     3.1050     0.0030 C.ar    
  13 C13            0.6760     4.1079     0.0182 C.ar    
  14 C14            1.0628     5.4392     0.0216 C.ar    
  15 C15            2.4129     5.7706     0.0099 C.ar    
  16 C16            3.3731     4.7767    -0.0051 C.ar    
  17 C17            2.9981     3.4483    -0.0028 C.ar    
  18 N18            0.0960     6.4475     0.0363 N.3     
  19 C19            0.7218     7.7772     0.0374 C.3     
  20 C20           -0.3672     8.8507    -0.0267 C.3     
  21 N21           -1.2716     8.6965     1.1213 N.3     
  22 C22           -1.8974     7.3668     1.1202 C.3     
  23 C23           -0.8084     6.2933     1.1843 C.3     
  24 H24            3.7590    -1.4111    -0.0454 H       
  25 H25           -0.3414    -2.6681    -0.0091 H       
  26 H26            0.4623    -5.0186    -0.0286 H       
  27 H27            2.8812    -5.4663    -0.0535 H       
  28 H28           -0.3723     3.8482     0.0269 H       
  29 H29            2.7124     6.8083     0.0122 H       
  30 H30            4.4204     5.0403    -0.0141 H       
  31 H31            3.7515     2.6746    -0.0100 H       
  32 H32            1.3043     7.9042     0.9499 H       
  33 H33            1.3768     7.8715    -0.8287 H       
  34 H34            0.0933     9.8381     0.0032 H       
  35 H35           -0.9324     8.7405    -0.9522 H       
  36 H36           -0.7863     8.8670     1.9894 H       
  37 H37           -2.5524     7.2725     1.9863 H       
  38 H38           -2.4800     7.2398     0.2078 H       
  39 H39           -1.2689     5.3058     1.1544 H       
  40 H40           -0.2432     6.4034     2.1098 H       
@<TRIPOS>BOND
   1    1    2 1
   2    1    5 1
   3    2    3 2
   4    3    4 1
   5    3    7 1
   6    4    5 2
   7    5   12 1
   8    6    7 ar
   9    6   11 ar
  10    6   24 1
  11    7    8 ar
  12    8    9 ar
  13    8   25 1
  14    9   10 ar
  15    9   26 1
  16   10   11 ar
  17   10   27 1
  18   12   13 ar
  19   12   17 ar
  20   13   14 ar
  21   13   28 1
  22   14   15 ar
  23   14   18 1
  24   15   16 ar
  25   15   29 1
  26   16   17 ar
  27   16   30 1
  28   17   31 1
  29   18   19 1
  30   18   23 1
  31   19   20 1
  32   19   32 1
  33   19   33 1
  34   20   21 1
  35   20   34 1
  36   20   35 1
  37   21   22 1
  38   21   36 1
  39   22   23 1
  40   22   37 1
  41   22   38 1
  42   23   39 1
  43   23   40 1

#	End of record

