#	Name: ASD00451009
#	Creating user name:	WinNT
#	Creation time:	15. 06. 2019 18:36

#	Modifying user name:	WinNT
#	Modification time:	15. 06. 2019 18:36

#	Program:	/corina/corina34_cracker 3.40 0067  02.08.2006

@<TRIPOS>MOLECULE
ASD00451009
  51   54    0    0    0
SMALL
NO_CHARGES


@<TRIPOS>ATOM
   1 C1             0.0506     1.5140    -0.0800 C.ar    
   2 C2             0.1246     0.1282    -0.1143 C.ar    
   3 N3             1.2248     2.2786    -0.0694 N.am    
   4 C4            -1.1877     2.1424    -0.0619 C.ar    
   5 C5            -1.0330    -0.6249    -0.1247 C.ar    
   6 C6             2.3199     1.8228     0.5704 C.2     
   7 C7            -2.3443     1.3888    -0.0780 C.ar    
   8 C8            -2.2696     0.0033    -0.1008 C.ar    
   9 O9             2.2612     0.7975     1.2213 O.2     
  10 N10            3.4803     2.5036     0.4887 N.am    
  11 O11           -3.4089    -0.7385    -0.1171 O.3     
  12 C12            4.5824     2.1025     1.2530 C.ar    
  13 C13           -3.2910    -2.0896    -0.0496 C.ar    
  14 C14            5.8700     2.3922     0.8220 C.ar    
  15 C15            4.3896     1.4190     2.4464 C.ar    
  16 C16           -3.0837    -2.7302     1.1694 C.ar    
  17 C17           -3.3797    -2.8744    -1.1971 C.ar    
  18 C18            6.9558     1.9953     1.5779 C.ar    
  19 C19            5.4784     1.0244     3.1984 C.ar    
  20 N20           -2.9522    -2.2816     2.4821 N.am    
  21 C21           -2.9674    -4.1201     1.2000 C.ar    
  22 C22           -3.2548    -4.2449    -1.0883 C.ar    
  23 C23            6.7612     1.3091     2.7635 C.ar    
  24 C24           -2.7641    -3.3541     3.2749 C.2     
  25 N25           -2.7638    -4.4738     2.5280 N.am    
  26 N26           -3.0532    -4.8230     0.0806 N.ar    
  27 Cl27           8.1279     0.8111     3.7109 Cl      
  28 O28           -2.6104    -3.3160     4.4814 O.2     
  29 H29            1.2494     3.1359    -0.5226 H       
  30 H30            3.5517     3.2715    -0.0996 H       
  31 H31           -2.9894    -1.3574     2.7742 H       
  32 H32           -2.6469    -5.3770     2.8618 H       
  33 C33           -1.2688     3.6468    -0.0241 C.3     
  34 C34           -3.6881     2.0706    -0.0584 C.3     
  35 C35            8.3537     2.3095     1.1107 C.3     
  36 F36            8.2949     3.0028    -0.1030 F       
  37 F37            8.9989     3.0994     2.0683 F       
  38 F38            9.0649     1.1179     0.9331 F       
  39 H39            1.0873    -0.3610    -0.1333 H       
  40 H40           -0.9755    -1.7030    -0.1518 H       
  41 H41            6.0225     2.9272    -0.1037 H       
  42 H42            3.3889     1.1965     2.7863 H       
  43 H43           -3.5448    -2.4159    -2.1610 H       
  44 H44            5.3290     0.4928     4.1266 H       
  45 H45           -3.3235    -4.8554    -1.9765 H       
  46 H46           -1.2904     4.0352    -1.0423 H       
  47 H47           -2.1761     3.9486     0.4992 H       
  48 H48           -0.3987     4.0446     0.4982 H       
  49 H49           -4.0142     2.2603    -1.0810 H       
  50 H50           -4.4138     1.4289     0.4413 H       
  51 H51           -3.6082     3.0157     0.4787 H       
@<TRIPOS>BOND
   1    1    2 ar
   2    1    3 1
   3    1    4 ar
   4    2    5 ar
   5    2   39 1
   6    3   29 1
   7    3    6 am
   8    4   33 1
   9    4    7 ar
  10    5    8 ar
  11    5   40 1
  12    6    9 2
  13    6   10 am
  14    7   34 1
  15    7    8 ar
  16    8   11 1
  17   10   12 1
  18   10   30 1
  19   11   13 1
  20   12   14 ar
  21   12   15 ar
  22   13   16 ar
  23   13   17 ar
  24   14   18 ar
  25   14   41 1
  26   15   19 ar
  27   15   42 1
  28   16   20 1
  29   16   21 ar
  30   17   22 ar
  31   17   43 1
  32   18   23 ar
  33   18   35 1
  34   19   23 ar
  35   19   44 1
  36   20   31 1
  37   20   24 am
  38   21   26 ar
  39   21   25 1
  40   22   26 ar
  41   22   45 1
  42   23   27 1
  43   24   25 am
  44   24   28 2
  45   25   32 1
  46   33   46 1
  47   33   47 1
  48   33   48 1
  49   34   49 1
  50   34   50 1
  51   34   51 1
  52   35   36 1
  53   35   37 1
  54   35   38 1

#	End of record

