#	Name: ASD03092381
#	Creating user name:	WinNT
#	Creation time:	15. 06. 2019 20:32

#	Modifying user name:	WinNT
#	Modification time:	15. 06. 2019 20:32

#	Program:	/corina/corina34_cracker 3.40 0067  02.08.2006

@<TRIPOS>MOLECULE
ASD03092381
  55   58    0    0    0
SMALL
NO_CHARGES


@<TRIPOS>ATOM
   1 O1             0.8904     1.0033    -0.3452 O.3     
   2 N2             0.7498    -0.1961    -0.2857 N.2     
   3 C3             1.9049    -0.8119    -0.2407 C.2     
   4 C4             2.8975     0.2066    -0.2809 C.2     
   5 C5             2.1838     1.3542    -0.3479 C.2     
   6 C6             2.1323    -2.2757    -0.1633 C.2     
   7 O7             3.2651    -2.7134    -0.1273 O.2     
   8 N8             1.0823    -3.1201    -0.1331 N.am    
   9 C9             2.7360     2.7549    -0.4133 C.3     
  10 C10            1.3069    -4.5657    -0.0568 C.3     
  11 S11           -2.1410    -6.4560     0.6760 S.3     
  12 C12           -1.8185    -6.1980    -0.9828 C.2     
  13 N13           -0.6847    -5.5812    -1.1308 N.2     
  14 C14           -0.0200    -5.2798    -0.0365 C.2     
  15 C15           -0.6269    -5.6643     1.1058 C.2     
  16 C16            0.3985    -6.2702     4.6675 C.ar    
  17 C17           -0.0903    -6.5079     3.4010 C.ar    
  18 C18           -0.1132    -5.4576     2.4739 C.ar    
  19 C19            0.3659    -4.2054     2.8820 C.ar    
  20 C20            0.8368    -4.0575     4.1684 C.ar    
  21 N21            0.8403    -5.0745     5.0105 N.ar    
  22 C22            0.4231    -7.3891     5.6767 C.3     
  23 N23           -2.6461    -6.5903    -2.0191 N.3     
  24 C24           -3.8490    -7.2627    -1.5071 C.3     
  25 C25           -4.7056    -7.7319    -2.6861 C.3     
  26 O26           -5.0235    -6.6101    -3.5142 O.3     
  27 C27           -3.8751    -5.9319    -4.0306 C.3     
  28 C28           -3.0100    -5.4445    -2.8652 C.3     
  29 C29           -4.3237    -4.7339    -4.8699 C.3     
  30 C30           -5.9973    -8.3613    -2.1605 C.3     
  31 H31            3.9711     0.0907    -0.2619 H       
  32 H32            0.1779    -2.7706    -0.1619 H       
  33 H33            1.9131     3.4681    -0.4592 H       
  34 H34            3.3371     2.9503     0.4748 H       
  35 H35            3.3574     2.8593    -1.3027 H       
  36 H36            1.8811    -4.8906    -0.9244 H       
  37 H37            1.8595    -4.8000     0.8531 H       
  38 H38           -0.4499    -7.4888     3.1272 H       
  39 H39            0.3664    -3.3692     2.1985 H       
  40 H40            1.2084    -3.0966     4.4923 H       
  41 H41            1.3715    -7.9216     5.6056 H       
  42 H42            0.3124    -6.9765     6.6795 H       
  43 H43           -0.3967    -8.0785     5.4749 H       
  44 H44           -3.5566    -8.1227    -0.9046 H       
  45 H45           -4.4223    -6.5666    -0.8949 H       
  46 H46           -4.1516    -8.4685    -3.2680 H       
  47 H47           -3.2970    -6.6162    -4.6516 H       
  48 H48           -3.5700    -4.7193    -2.2747 H       
  49 H49           -2.1053    -4.9772    -3.2541 H       
  50 H50           -4.9000    -4.0495    -4.2473 H       
  51 H51           -3.4481    -4.2175    -5.2631 H       
  52 H52           -4.9427    -5.0813    -5.6971 H       
  53 H53           -6.5512    -7.6232    -1.5804 H       
  54 H54           -6.6067    -8.6951    -3.0003 H       
  55 H55           -5.7543    -9.2139    -1.5263 H       
@<TRIPOS>BOND
   1    1    2 1
   2    1    5 1
   3    2    3 2
   4    3    4 1
   5    3    6 1
   6    4    5 2
   7    4   31 1
   8    5    9 1
   9    6    7 2
  10    6    8 am
  11    8   10 1
  12    8   32 1
  13    9   33 1
  14    9   34 1
  15    9   35 1
  16   10   14 1
  17   10   36 1
  18   10   37 1
  19   11   12 1
  20   11   15 1
  21   12   13 2
  22   12   23 1
  23   13   14 1
  24   14   15 2
  25   15   18 1
  26   16   17 ar
  27   16   21 ar
  28   16   22 1
  29   17   18 ar
  30   17   38 1
  31   18   19 ar
  32   19   20 ar
  33   19   39 1
  34   20   21 ar
  35   20   40 1
  36   22   41 1
  37   22   42 1
  38   22   43 1
  39   23   24 1
  40   23   28 1
  41   24   25 1
  42   24   44 1
  43   24   45 1
  44   25   26 1
  45   25   30 1
  46   25   46 1
  47   26   27 1
  48   27   28 1
  49   27   29 1
  50   27   47 1
  51   28   48 1
  52   28   49 1
  53   29   50 1
  54   29   51 1
  55   29   52 1
  56   30   53 1
  57   30   54 1
  58   30   55 1

#	End of record

