#	Name: ASD01915229
#	Creating user name:	WinNT
#	Creation time:	15. 06. 2019 20:05

#	Modifying user name:	WinNT
#	Modification time:	15. 06. 2019 20:05

#	Program:	/corina/corina34_cracker 3.40 0067  02.08.2006

@<TRIPOS>MOLECULE
ASD01915229
  30   31    0    0    0
SMALL
NO_CHARGES


@<TRIPOS>ATOM
   1 C1            -0.0169     1.3916    -0.0021 C.ar    
   2 C2             0.0024    -0.0047    -0.0126 C.ar    
   3 C3            -1.1842    -0.7155    -0.0127 C.ar    
   4 C4            -2.3955    -0.0489    -0.0024 C.ar    
   5 C5            -2.4270     1.3479     0.0086 C.ar    
   6 C6            -1.2345     2.0690     0.0146 C.ar    
   7 F7            -1.1595    -2.0662    -0.0234 F       
   8 C8             1.2523     2.1498    -0.0025 C.2     
   9 N9             2.4293     1.4934    -0.0131 N.am    
  10 O10            1.2342     3.3652     0.0066 O.2     
  11 C11            3.6268     2.2068    -0.1263 C.ar    
  12 C12            3.6809     3.3569    -0.9028 C.ar    
  13 C13            4.8652     4.0592    -1.0125 C.ar    
  14 C14            5.9962     3.6181    -0.3506 C.ar    
  15 C15            5.9458     2.4728     0.4232 C.ar    
  16 C16            4.7633     1.7698     0.5424 C.ar    
  17 C17            4.9249     5.3073    -1.8549 C.3     
  18 C18           -3.6822     2.0372     0.0193 C.1     
  19 N19           -4.6779     2.5840     0.0278 N.1     
  20 H20            0.9457    -0.5306    -0.0210 H       
  21 H21           -3.3190    -0.6089    -0.0032 H       
  22 H22           -1.2540     3.1487     0.0235 H       
  23 H23            2.4459     0.5261     0.0578 H       
  24 H24            2.7980     3.7016    -1.4206 H       
  25 H25            6.9211     4.1688    -0.4383 H       
  26 H26            6.8311     2.1305     0.9383 H       
  27 H27            4.7246     0.8756     1.1467 H       
  28 H28            4.6802     6.1731    -1.2395 H       
  29 H29            5.9293     5.4232    -2.2620 H       
  30 H30            4.2083     5.2285    -2.6725 H       
@<TRIPOS>BOND
   1    1    2 ar
   2    1    8 1
   3    1    6 ar
   4    2    3 ar
   5    2   20 1
   6    3    4 ar
   7    3    7 1
   8    4    5 ar
   9    4   21 1
  10    5    6 ar
  11    5   18 1
  12    6   22 1
  13    8    9 am
  14    8   10 2
  15    9   11 1
  16    9   23 1
  17   11   12 ar
  18   11   16 ar
  19   12   13 ar
  20   12   24 1
  21   13   14 ar
  22   13   17 1
  23   14   15 ar
  24   14   25 1
  25   15   16 ar
  26   15   26 1
  27   16   27 1
  28   17   28 1
  29   17   29 1
  30   17   30 1
  31   18   19 3

#	End of record

