#	Name: ASD02039086
#	Creating user name:	WinNT
#	Creation time:	15. 06. 2019 20:17

#	Modifying user name:	WinNT
#	Modification time:	15. 06. 2019 20:17

#	Program:	/corina/corina34_cracker 3.40 0067  02.08.2006

@<TRIPOS>MOLECULE
ASD02039086
  46   49    0    0    0
SMALL
NO_CHARGES


@<TRIPOS>ATOM
   1 N1            -0.6928     1.0642    -1.3624 N.2     
   2 N2            -0.5245    -0.1779    -1.0726 N.2     
   3 C3             0.3345     1.7536    -0.9290 C.2     
   4 O4             1.1786     0.8853    -0.3413 O.3     
   5 C5             0.6067    -0.3299    -0.4484 C.2     
   6 N6             0.5173     3.1190    -1.0533 N.pl3   
   7 C7            -0.5050     3.9171    -1.5805 C.ar    
   8 C8             1.1742    -1.6291     0.0623 C.3     
   9 O9             0.1478    -2.3688     0.7268 O.3     
  10 C10            1.7131    -2.4472    -1.1129 C.3     
  11 C11            0.5450    -3.2734     1.6608 C.ar    
  12 C12            1.8901    -3.5219     1.8481 C.ar    
  13 C13           -0.4067    -3.9407     2.4278 C.ar    
  14 C14           -0.0227    -4.8598     3.3794 C.ar    
  15 C15            1.3268    -5.1289     3.5805 C.ar    
  16 C16            2.2924    -4.4532     2.8107 C.ar    
  17 C17           -1.8338     3.5719    -1.3713 C.ar    
  18 C18           -0.1910     5.0574    -2.3082 C.ar    
  19 C19           -1.2000     5.8440    -2.8280 C.ar    
  20 C20           -2.5269     5.4956    -2.6230 C.ar    
  21 C21           -2.8416     4.3596    -1.8917 C.ar    
  22 N22            1.7318    -6.0467     4.5286 N.am    
  23 C23            3.0358    -6.3088     4.7246 C.2     
  24 C24            4.0421    -5.6620     3.9759 C.2     
  25 C25            3.7097    -4.7465     3.0326 C.2     
  26 O26            3.3569    -7.1254     5.5706 O.2     
  27 O27           -3.5200     6.2713    -3.1343 O.3     
  28 C28           -4.8634     5.8532    -2.8848 C.3     
  29 F29           -5.0639     4.5795    -3.4278 F       
  30 F30           -5.0907     5.8130    -1.5050 F       
  31 H31            1.3539     3.5236    -0.7752 H       
  32 H32            1.9837    -1.4218     0.7622 H       
  33 H33            2.4960    -1.8830    -1.6197 H       
  34 H34            2.1236    -3.3870    -0.7435 H       
  35 H35            0.9036    -2.6545    -1.8128 H       
  36 H36            2.6269    -3.0006     1.2548 H       
  37 H37           -1.4560    -3.7353     2.2755 H       
  38 H38           -0.7692    -5.3710     3.9691 H       
  39 H39           -2.0789     2.6875    -0.8020 H       
  40 H40            0.8421     5.3292    -2.4674 H       
  41 H41           -0.9559     6.7309    -3.3939 H       
  42 H42           -3.8749     4.0891    -1.7326 H       
  43 H43            1.0660    -6.5090     5.0613 H       
  44 H44            5.0811    -5.8944     4.1575 H       
  45 H45            4.4735    -4.2472     2.4550 H       
  46 H46           -5.5550     6.5579    -3.3466 H       
@<TRIPOS>BOND
   1    1    2 1
   2    1    3 2
   3    2    5 2
   4    3    4 1
   5    3    6 1
   6    4    5 1
   7    5    8 1
   8    6    7 1
   9    6   31 1
  10    7   17 ar
  11    7   18 ar
  12    8    9 1
  13    8   10 1
  14    8   32 1
  15    9   11 1
  16   10   33 1
  17   10   34 1
  18   10   35 1
  19   11   12 ar
  20   11   13 ar
  21   12   16 ar
  22   12   36 1
  23   13   14 ar
  24   13   37 1
  25   14   15 ar
  26   14   38 1
  27   15   16 ar
  28   15   22 1
  29   16   25 1
  30   17   21 ar
  31   17   39 1
  32   18   19 ar
  33   18   40 1
  34   19   20 ar
  35   19   41 1
  36   20   21 ar
  37   20   27 1
  38   21   42 1
  39   22   23 am
  40   22   43 1
  41   23   24 1
  42   23   26 2
  43   24   25 2
  44   24   44 1
  45   25   45 1
  46   27   28 1
  47   28   29 1
  48   28   30 1
  49   28   46 1

#	End of record

