#	Name: ASD02500079
#	Creating user name:	WinNT
#	Creation time:	15. 06. 2019 20:22

#	Modifying user name:	WinNT
#	Modification time:	15. 06. 2019 20:22

#	Program:	/corina/corina34_cracker 3.40 0067  02.08.2006

@<TRIPOS>MOLECULE
ASD02500079
  67   71    0    0    0
SMALL
NO_CHARGES


@<TRIPOS>ATOM
   1 N1            -0.3106     2.0630     0.5560 N.3     
   2 C2            -0.2446     0.5984     0.6484 C.3     
   3 C3            -1.6635     0.0333     0.7725 C.3     
   4 N4            -2.4716     0.5504    -0.3423 N.am    
   5 C5            -2.4775     2.0013    -0.5831 C.3     
   6 C6            -1.0265     2.4890    -0.6539 C.3     
   7 C7            -3.1872    -0.2833    -1.1229 C.2     
   8 O8            -3.0861    -1.4866    -0.9802 O.2     
   9 C9            -4.0933     0.2640    -2.1504 C.ar    
  10 C10           -4.2179    -0.3759    -3.3870 C.ar    
  11 C11           -5.0642     0.1368    -4.3433 C.ar    
  12 C12           -5.7956     1.2919    -4.0804 C.ar    
  13 C13           -5.6733     1.9318    -2.8500 C.ar    
  14 C14           -4.8333     1.4204    -1.8874 C.ar    
  15 N15           -6.6495     1.8078    -5.0489 N.am    
  16 S16           -8.1854     2.2703    -4.6370 S.o2    
  17 C17           -9.0201     0.8368    -4.0428 C.ar    
  18 O18           -8.0560     3.1482    -3.5272 O.2     
  19 O19           -8.8320     2.6381    -5.8477 O.2     
  20 C20           -9.2675    -0.2443    -4.9063 C.ar    
  21 C21           -9.9405    -1.3863    -4.4052 C.ar    
  22 C22          -10.3463    -1.4184    -3.0616 C.ar    
  23 C23          -10.0885    -0.3520    -2.2551 C.ar    
  24 C24           -9.4228     0.7698    -2.7444 C.ar    
  25 N25           -8.8791    -0.2088    -6.1851 N.ar    
  26 C26           -9.1076    -1.2141    -6.9947 C.ar    
  27 C27           -9.7641    -2.3660    -6.5663 C.ar    
  28 C28          -10.1872    -2.4679    -5.2718 C.ar    
  29 C29            0.9698     2.6272     0.6061 C.ar    
  30 C30            2.0907     1.8147     0.7285 C.ar    
  31 C31            1.1334     4.0042     0.5283 C.ar    
  32 C32            2.4333     4.5221     0.5828 C.ar    
  33 C33            3.5113     3.6339     0.7129 C.ar    
  34 N34            3.3035     2.3301     0.7775 N.ar    
  35 O35            4.7765     4.1161     0.7673 O.3     
  36 C36            5.8301     3.1599     0.9002 C.3     
  37 C37            2.6651     5.9756     0.5042 C.2     
  38 O38            3.7974     6.4138     0.5524 O.2     
  39 O39            1.6212     6.8185     0.3788 O.3     
  40 C40            1.9240     8.2368     0.3073 C.3     
  41 H41            0.2291     0.1985    -0.2482 H       
  42 H42            0.3378     0.3151     1.5251 H       
  43 H43           -1.6295    -1.0552     0.7261 H       
  44 H44           -2.1017     0.3487     1.7194 H       
  45 H45           -2.9817     2.2140    -1.5258 H       
  46 H46           -2.9940     2.5058     0.2335 H       
  47 H47           -1.0113     3.5768    -0.7216 H       
  48 H48           -0.5420     2.0627    -1.5323 H       
  49 H49           -3.6502    -1.2716    -3.5918 H       
  50 H50           -5.1609    -0.3571    -5.2988 H       
  51 H51           -6.2417     2.8279    -2.6492 H       
  52 H52           -4.7389     1.9173    -0.9331 H       
  53 H53           -6.3457     1.8968    -5.9657 H       
  54 H54          -10.8602    -2.2839    -2.6700 H       
  55 H55          -10.4010    -0.3776    -1.2217 H       
  56 H56           -9.2298     1.6029    -2.0847 H       
  57 H57           -8.7787    -1.1475    -8.0212 H       
  58 H58           -9.9381    -3.1776    -7.2573 H       
  59 H59          -10.6973    -3.3536    -4.9227 H       
  60 H60            1.9664     0.7433     0.7846 H       
  61 H61            0.2801     4.6586     0.4281 H       
  62 H62            5.6927     2.5936     1.8213 H       
  63 H63            5.8125     2.4792     0.0491 H       
  64 H64            6.7888     3.6776     0.9316 H       
  65 H65            2.5612     8.4292    -0.5559 H       
  66 H66            0.9972     8.8017     0.2079 H       
  67 H67            2.4412     8.5442     1.2163 H       
@<TRIPOS>BOND
   1    1    2 1
   2    1   29 1
   3    1    6 1
   4    2    3 1
   5    2   41 1
   6    2   42 1
   7    3    4 1
   8    3   43 1
   9    3   44 1
  10    4    5 1
  11    4    7 am
  12    5    6 1
  13    5   45 1
  14    5   46 1
  15    6   47 1
  16    6   48 1
  17    7    8 2
  18    7    9 1
  19    9   10 ar
  20    9   14 ar
  21   10   11 ar
  22   10   49 1
  23   11   12 ar
  24   11   50 1
  25   12   13 ar
  26   12   15 1
  27   13   14 ar
  28   13   51 1
  29   14   52 1
  30   15   16 am
  31   15   53 1
  32   16   17 1
  33   16   18 2
  34   16   19 2
  35   17   20 ar
  36   17   24 ar
  37   20   21 ar
  38   20   25 ar
  39   21   22 ar
  40   21   28 ar
  41   22   23 ar
  42   22   54 1
  43   23   24 ar
  44   23   55 1
  45   24   56 1
  46   25   26 ar
  47   26   27 ar
  48   26   57 1
  49   27   28 ar
  50   27   58 1
  51   28   59 1
  52   29   30 ar
  53   29   31 ar
  54   30   34 ar
  55   30   60 1
  56   31   32 ar
  57   31   61 1
  58   32   33 ar
  59   32   37 1
  60   33   34 ar
  61   33   35 1
  62   35   36 1
  63   36   62 1
  64   36   63 1
  65   36   64 1
  66   37   38 2
  67   37   39 1
  68   39   40 1
  69   40   65 1
  70   40   66 1
  71   40   67 1

#	End of record

