#	Name: ASD02500222
#	Creating user name:	WinNT
#	Creation time:	15. 06. 2019 20:22

#	Modifying user name:	WinNT
#	Modification time:	15. 06. 2019 20:22

#	Program:	/corina/corina34_cracker 3.40 0067  02.08.2006

@<TRIPOS>MOLECULE
ASD02500222
  60   64    0    0    0
SMALL
NO_CHARGES


@<TRIPOS>ATOM
   1 N1            -1.6073     5.5323    -0.8252 N.ar    
   2 C2            -2.6454     6.3149    -0.9927 C.ar    
   3 C3            -3.7102     6.3230    -0.0941 C.ar    
   4 C4            -3.6888     5.4999     0.9955 C.ar    
   5 C5            -2.5726     4.6604     1.1720 C.ar    
   6 C6            -2.4798     3.7880     2.2679 C.ar    
   7 C7            -1.3833     2.9920     2.4035 C.ar    
   8 C8            -0.3510     3.0320     1.4687 C.ar    
   9 C9            -0.4082     3.8658     0.3945 C.ar    
  10 C10           -1.5238     4.7028     0.2199 C.ar    
  11 S11            0.9118     3.8966    -0.7723 S.o2    
  12 O12            1.2717     5.2616    -0.9350 O.2     
  13 O13            1.8318     2.8935    -0.3640 O.2     
  14 N14            0.2929     3.3997    -2.2258 N.am    
  15 C15           -0.1334     2.0846    -2.3877 C.ar    
  16 C16            0.0002     1.4573    -3.6256 C.ar    
  17 C17           -0.4211     0.1558    -3.7879 C.ar    
  18 C18           -0.9823    -0.5350    -2.7093 C.ar    
  19 C19           -1.1139     0.0975    -1.4702 C.ar    
  20 C20           -0.6866     1.3969    -1.3125 C.ar    
  21 F21            0.5427     2.1262    -4.6665 F       
  22 C22           -1.4351    -1.9287    -2.8794 C.2     
  23 O23           -1.1900    -2.7563    -2.0229 O.2     
  24 N24           -2.1203    -2.2846    -3.9840 N.am    
  25 C25           -2.6602    -3.6443    -4.1236 C.3     
  26 C26           -4.1668    -3.5480    -4.3944 C.3     
  27 N27           -4.3879    -2.5831    -5.4807 N.am    
  28 C28           -3.8480    -1.2234    -5.3411 C.3     
  29 C29           -2.3463    -1.3181    -5.0678 C.3     
  30 C30           -5.0732    -2.9390    -6.5853 C.2     
  31 C31           -5.3772    -1.9319    -7.6224 C.ar    
  32 C32           -5.3799    -2.2940    -8.9713 C.ar    
  33 C33           -5.6652    -1.3489    -9.9358 C.ar    
  34 C34           -5.9488    -0.0407    -9.5659 C.ar    
  35 C35           -5.9465     0.3220    -8.2285 C.ar    
  36 C36           -5.6684    -0.6163    -7.2570 C.ar    
  37 O37           -5.4411    -4.0888    -6.7283 O.2     
  38 F38           -6.2275     0.8815   -10.5130 F       
  39 F39           -5.6680    -1.6966   -11.2413 F       
  40 H40           -2.6760     6.9712    -1.8499 H       
  41 H41           -4.5515     6.9798    -0.2589 H       
  42 H42           -4.5054     5.4934     1.7024 H       
  43 H43           -3.2733     3.7486     2.9995 H       
  44 H44           -1.3127     2.3211     3.2469 H       
  45 H45            0.5086     2.3912     1.5988 H       
  46 H46            0.2275     4.0252    -2.9643 H       
  47 H47           -0.3184    -0.3302    -4.7469 H       
  48 H48           -1.5473    -0.4337    -0.6358 H       
  49 H49           -0.7847     1.8842    -0.3537 H       
  50 H50           -2.1703    -4.1487    -4.9565 H       
  51 H51           -2.4890    -4.2022    -3.2030 H       
  52 H52           -4.5486    -4.5253    -4.6898 H       
  53 H53           -4.6793    -3.2091    -3.4941 H       
  54 H54           -4.0193    -0.6655    -6.2617 H       
  55 H55           -4.3379    -0.7190    -4.5082 H       
  56 H56           -1.9677    -0.3401    -4.7706 H       
  57 H57           -1.8335    -1.6530    -5.9695 H       
  58 H58           -5.1590    -3.3113    -9.2591 H       
  59 H59           -6.1674     1.3407    -7.9461 H       
  60 H60           -5.6715    -0.3327    -6.2149 H       
@<TRIPOS>BOND
   1    1    2 ar
   2    1   10 ar
   3    2    3 ar
   4    2   40 1
   5    3    4 ar
   6    3   41 1
   7    4    5 ar
   8    4   42 1
   9    5    6 ar
  10    5   10 ar
  11    6    7 ar
  12    6   43 1
  13    7    8 ar
  14    7   44 1
  15    8    9 ar
  16    8   45 1
  17    9   10 ar
  18    9   11 1
  19   11   12 2
  20   11   13 2
  21   11   14 am
  22   14   15 1
  23   14   46 1
  24   15   16 ar
  25   15   20 ar
  26   16   17 ar
  27   16   21 1
  28   17   18 ar
  29   17   47 1
  30   18   19 ar
  31   18   22 1
  32   19   20 ar
  33   19   48 1
  34   20   49 1
  35   22   23 2
  36   22   24 am
  37   24   25 1
  38   24   29 1
  39   25   26 1
  40   25   50 1
  41   25   51 1
  42   26   27 1
  43   26   52 1
  44   26   53 1
  45   27   28 1
  46   27   30 am
  47   28   29 1
  48   28   54 1
  49   28   55 1
  50   29   56 1
  51   29   57 1
  52   30   31 1
  53   30   37 2
  54   31   32 ar
  55   31   36 ar
  56   32   33 ar
  57   32   58 1
  58   33   34 ar
  59   33   39 1
  60   34   35 ar
  61   34   38 1
  62   35   36 ar
  63   35   59 1
  64   36   60 1

#	End of record

