#	Name: ASD03331451
#	Creating user name:	WinNT
#	Creation time:	15. 06. 2019 20:39

#	Modifying user name:	WinNT
#	Modification time:	15. 06. 2019 20:39

#	Program:	/corina/corina34_cracker 3.40 0067  02.08.2006

@<TRIPOS>MOLECULE
ASD03331451
  77   81    0    0    0
SMALL
NO_CHARGES


@<TRIPOS>ATOM
   1 N1            -0.5848     1.8545    -1.1432 N.am    
   2 C2            -0.3487     0.4249    -1.3869 C.3     
   3 C3            -0.7948     0.0876    -2.8131 C.3     
   4 C4            -0.0855     1.0188    -3.7989 C.3     
   5 C5            -0.4728     2.4693    -3.5020 C.3     
   6 C6            -0.0230     2.8336    -2.0836 C.3     
   7 C7             1.4062     0.8582    -3.6566 C.2     
   8 O8             2.1047     1.8301    -3.4608 O.2     
   9 N9             1.9639    -0.3654    -3.7469 N.am    
  10 C10           -0.4961     0.6673    -5.2056 C.ar    
  11 C11           -0.0513     1.4337    -6.2668 C.ar    
  12 C12           -0.4268     1.1121    -7.5573 C.ar    
  13 C13           -1.2488     0.0219    -7.7873 C.ar    
  14 C14           -1.6936    -0.7449    -6.7237 C.ar    
  15 C15           -1.3125    -0.4246    -5.4345 C.ar    
  16 F16           -1.6168    -0.2931    -9.0484 F       
  17 C17           -1.3077     2.2597    -0.0804 C.2     
  18 O18           -1.8517     1.4390     0.6337 O.2     
  19 N19           -2.2966     5.6695     0.7400 N.pl3   
  20 C20           -2.6006     4.3632     0.5426 C.2     
  21 C21           -1.4390     3.6964     0.2165 C.2     
  22 C22           -0.3936     4.6561     0.2209 C.2     
  23 C23           -0.9478     5.8524     0.5442 C.2     
  24 C24           -0.2232     7.1358     0.6658 C.ar    
  25 C25            0.9387     7.2147     1.4370 C.ar    
  26 C26            1.6106     8.4157     1.5460 C.ar    
  27 C27            1.1346     9.5399     0.8927 C.ar    
  28 C28           -0.0169     9.4672     0.1273 C.ar    
  29 C29           -0.6941     8.2712     0.0060 C.ar    
  30 Cl30           1.9847    11.0468     1.0342 Cl      
  31 Cl31           1.5360     5.8060     2.2570 Cl      
  32 C32           -3.2117     6.6740     1.0830 C.ar    
  33 C33           -3.1575     7.2649     2.3383 C.ar    
  34 C34           -4.0600     8.2550     2.6738 C.ar    
  35 C35           -5.0178     8.6582     1.7600 C.ar    
  36 C36           -5.0742     8.0705     0.5084 C.ar    
  37 C37           -4.1703     7.0841     0.1661 C.ar    
  38 Cl38          -6.1509     9.9030     2.1847 Cl      
  39 C39           -3.9709     3.7468     0.6593 C.3     
  40 C40           -4.6736     3.8051    -0.6985 C.3     
  41 C41           -6.0648     3.1794    -0.5801 C.3     
  42 C42           -6.7675     3.2377    -1.9379 C.3     
  43 C43           -8.1378     2.6213    -1.8212 C.2     
  44 O44           -8.5151     2.1790    -0.7568 O.2     
  45 N45           -8.9439     2.5617    -2.8996 N.am    
  46 H46            0.7131     0.2056    -1.2746 H       
  47 H47           -0.9235    -0.1670    -0.6746 H       
  48 H48           -0.5369    -0.9469    -3.0398 H       
  49 H49           -1.8733     0.2211    -2.8981 H       
  50 H50            0.0143     3.1300    -4.2191 H       
  51 H51           -1.5543     2.5804    -3.5806 H       
  52 H52           -0.3829     3.8310    -1.8311 H       
  53 H53            1.0653     2.8107    -2.0282 H       
  54 H54            1.4156    -1.1328    -3.9733 H       
  55 H55            2.9137    -0.4786    -3.5855 H       
  56 H56            0.5895     2.2843    -6.0871 H       
  57 H57           -0.0795     1.7112    -8.3861 H       
  58 H58           -2.3347    -1.5955    -6.9019 H       
  59 H59           -1.6560    -1.0250    -4.6051 H       
  60 H60            0.6484     4.4696     0.0067 H       
  61 H61            2.5089     8.4786     2.1422 H       
  62 H62           -0.3833    10.3477    -0.3796 H       
  63 H63           -1.5895     8.2151    -0.5953 H       
  64 H64           -2.4103     6.9503     3.0519 H       
  65 H65           -4.0185     8.7146     3.6502 H       
  66 H66           -5.8229     8.3867    -0.2029 H       
  67 H67           -4.2116     6.6291    -0.8125 H       
  68 H68           -3.8762     2.7079     0.9751 H       
  69 H69           -4.5559     4.2985     1.3951 H       
  70 H70           -4.7682     4.8441    -1.0144 H       
  71 H71           -4.0886     3.2535    -1.4344 H       
  72 H72           -5.9702     2.1405    -0.2642 H       
  73 H73           -6.6498     3.7310     0.1558 H       
  74 H74           -6.8621     4.2766    -2.2537 H       
  75 H75           -6.1825     2.6860    -2.6737 H       
  76 H76           -8.6421     2.9154    -3.7509 H       
  77 H77           -9.8259     2.1650    -2.8245 H       
@<TRIPOS>BOND
   1    1    2 1
   2    1    6 1
   3    1   17 am
   4    2    3 1
   5    2   46 1
   6    2   47 1
   7    3    4 1
   8    3   48 1
   9    3   49 1
  10    4    5 1
  11    4    7 1
  12    4   10 1
  13    5    6 1
  14    5   50 1
  15    5   51 1
  16    6   52 1
  17    6   53 1
  18    7    8 2
  19    7    9 am
  20    9   54 1
  21    9   55 1
  22   10   11 ar
  23   10   15 ar
  24   11   12 ar
  25   11   56 1
  26   12   13 ar
  27   12   57 1
  28   13   14 ar
  29   13   16 1
  30   14   15 ar
  31   14   58 1
  32   15   59 1
  33   17   18 2
  34   17   21 1
  35   19   20 1
  36   19   23 1
  37   19   32 1
  38   20   21 2
  39   20   39 1
  40   21   22 1
  41   22   23 2
  42   22   60 1
  43   23   24 1
  44   24   25 ar
  45   24   29 ar
  46   25   26 ar
  47   25   31 1
  48   26   27 ar
  49   26   61 1
  50   27   28 ar
  51   27   30 1
  52   28   29 ar
  53   28   62 1
  54   29   63 1
  55   32   33 ar
  56   32   37 ar
  57   33   34 ar
  58   33   64 1
  59   34   35 ar
  60   34   65 1
  61   35   36 ar
  62   35   38 1
  63   36   37 ar
  64   36   66 1
  65   37   67 1
  66   39   40 1
  67   39   68 1
  68   39   69 1
  69   40   41 1
  70   40   70 1
  71   40   71 1
  72   41   42 1
  73   41   72 1
  74   41   73 1
  75   42   43 1
  76   42   74 1
  77   42   75 1
  78   43   44 2
  79   43   45 am
  80   45   76 1
  81   45   77 1

#	End of record

