#	Name: ASD03090106
#	Creating user name:	WinNT
#	Creation time:	15. 06. 2019 20:28

#	Modifying user name:	WinNT
#	Modification time:	15. 06. 2019 20:28

#	Program:	/corina/corina34_cracker 3.40 0067  02.08.2006

@<TRIPOS>MOLECULE
ASD03090106
  47   48    0    0    0
SMALL
NO_CHARGES


@<TRIPOS>ATOM
   1 C1            -0.0186     1.5024     0.0154 C.2     
   2 C2             0.0014    -0.0045     0.0123 C.3     
   3 O3             1.0237     2.1227     0.0093 O.2     
   4 N4            -1.1946     2.1607     0.0195 N.am    
   5 C5             1.4287    -0.4880     0.0013 C.ar    
   6 C6             2.0905    -0.7116     1.1947 C.ar    
   7 C7             3.3986    -1.1547     1.1881 C.ar    
   8 C8             4.0493    -1.3757    -0.0191 C.ar    
   9 C9             3.3815    -1.1500    -1.2160 C.ar    
  10 C10            2.0717    -0.7123    -1.2023 C.ar    
  11 N11            5.3724    -1.8233    -0.0293 N.pl3   
  12 C12            6.0571    -2.0558    -1.3034 C.3     
  13 C13            7.4840    -2.5384    -1.0349 C.3     
  14 C14            7.4394    -3.9031    -0.3444 C.3     
  15 C15            8.2385    -2.6619    -2.3602 C.3     
  16 C16           -1.2153     3.5574     0.1329 C.ar    
  17 C17           -2.1839     4.2939    -0.5363 C.ar    
  18 C18           -2.2048     5.6696    -0.4248 C.ar    
  19 C19           -1.2567     6.3175     0.3575 C.ar    
  20 C20           -0.2879     5.5802     1.0273 C.ar    
  21 C21           -0.2708     4.2041     0.9191 C.ar    
  22 S22           -1.2824     8.0736     0.4997 S.3     
  23 C23            0.1193     8.4145     1.5995 C.3     
  24 F24           -0.0833     7.7727     2.8260 F       
  25 F25            1.2978     7.9397     1.0139 F       
  26 H26           -0.5013    -0.3764     0.9052 H       
  27 H27           -0.5139    -0.3729    -0.8747 H       
  28 H28           -2.0266     1.6678    -0.0562 H       
  29 H29            1.5841    -0.5393     2.1329 H       
  30 H30            3.9150    -1.3289     2.1205 H       
  31 H31            3.8846    -1.3208    -2.1563 H       
  32 H32            1.5504    -0.5412    -2.1325 H       
  33 H33            5.8378    -1.9803     0.8071 H       
  34 H34            5.5184    -2.8135    -1.8725 H       
  35 H35            6.0889    -1.1274    -1.8736 H       
  36 H36            7.9947    -1.8222    -0.3914 H       
  37 H37            6.9286    -4.6193    -0.9880 H       
  38 H38            8.4559    -4.2469    -0.1532 H       
  39 H39            6.9018    -3.8151     0.5997 H       
  40 H40            8.2703    -1.6897    -2.8521 H       
  41 H41            9.2550    -3.0057    -2.1689 H       
  42 H42            7.7277    -3.3782    -3.0037 H       
  43 H43           -2.9208     3.7903    -1.1443 H       
  44 H44           -2.9577     6.2424    -0.9458 H       
  45 H45            0.4492     6.0833     1.6355 H       
  46 H46            0.4798     3.6306     1.4427 H       
  47 H47            0.2013     9.4893     1.7611 H       
@<TRIPOS>BOND
   1    1    2 1
   2    1    3 2
   3    1    4 am
   4    2    5 1
   5    2   26 1
   6    2   27 1
   7    4   16 1
   8    4   28 1
   9    5    6 ar
  10    5   10 ar
  11    6    7 ar
  12    6   29 1
  13    7    8 ar
  14    7   30 1
  15    8    9 ar
  16    8   11 1
  17    9   10 ar
  18    9   31 1
  19   10   32 1
  20   11   12 1
  21   11   33 1
  22   12   13 1
  23   12   34 1
  24   12   35 1
  25   13   14 1
  26   13   15 1
  27   13   36 1
  28   14   37 1
  29   14   38 1
  30   14   39 1
  31   15   40 1
  32   15   41 1
  33   15   42 1
  34   16   17 ar
  35   16   21 ar
  36   17   18 ar
  37   17   43 1
  38   18   19 ar
  39   18   44 1
  40   19   20 ar
  41   19   22 1
  42   20   21 ar
  43   20   45 1
  44   21   46 1
  45   22   23 1
  46   23   24 1
  47   23   25 1
  48   23   47 1

#	End of record

