#	Name: ASD02038647
#	Creating user name:	WinNT
#	Creation time:	15. 06. 2019 20:17

#	Modifying user name:	WinNT
#	Modification time:	15. 06. 2019 20:17

#	Program:	/corina/corina34_cracker 3.40 0067  02.08.2006

@<TRIPOS>MOLECULE
ASD02038647
  55   57    0    0    0
SMALL
NO_CHARGES


@<TRIPOS>ATOM
   1 C1             0.2421     1.3037     0.5359 C.ar    
   2 C2             0.1930    -0.0812     0.4748 C.ar    
   3 O3            -1.0050    -0.7219     0.5312 O.3     
   4 C4            -0.9813    -2.1491     0.4629 C.3     
   5 C5            -2.4114    -2.6872     0.5407 C.3     
   6 C6            -2.3969    -4.2043     0.3427 C.3     
   7 N7            -3.7755    -4.7117     0.3462 N.3     
   8 C8            -4.4511    -4.4084    -0.9219 C.3     
   9 C9            -5.9222    -4.8199    -0.8288 C.3     
  10 C10            1.4585     1.9551     0.4787 C.ar    
  11 C11            2.6324     1.2234     0.3602 C.ar    
  12 C12            2.5826    -0.1627     0.2991 C.ar    
  13 C13            1.3656    -0.8128     0.3559 C.ar    
  14 N14            3.8672     1.8838     0.3016 N.am    
  15 O15           -2.9673    -2.3792     1.8206 O.3     
  16 C16           -3.8055    -6.1517     0.6327 C.3     
  17 C17           -6.0098    -6.3187    -0.5280 C.3     
  18 C18           -5.2573    -6.6152     0.7722 C.3     
  19 C19           -7.4549    -6.7182    -0.3759 C.ar    
  20 C20           -7.8575    -7.9968    -0.7137 C.ar    
  21 C21           -9.1827    -8.3639    -0.5739 C.ar    
  22 O22           -5.4195    -7.0563    -1.6002 O.3     
  23 C23            4.0499     3.0327     0.9822 C.2     
  24 O24            3.1772     3.4474     1.7204 O.2     
  25 N25            5.1998     3.7220     0.8444 N.am    
  26 C26           -8.3763    -5.8077     0.1069 C.ar    
  27 C27           -9.7017    -6.1736     0.2471 C.ar    
  28 C28          -10.1062    -7.4515    -0.0958 C.ar    
  29 Cl29         -11.7708    -7.9119     0.0801 Cl      
  30 H30           -0.6715     1.8730     0.6237 H       
  31 H31           -0.5266    -2.4603    -0.4776 H       
  32 H32           -0.3990    -2.5430     1.2959 H       
  33 H33           -3.0165    -2.2248    -0.2391 H       
  34 H34           -1.9247    -4.4418    -0.6105 H       
  35 H35           -1.8359    -4.6710     1.1524 H       
  36 H36           -4.3851    -3.3390    -1.1218 H       
  37 H37           -3.9703    -4.9592    -1.7303 H       
  38 H38           -6.4070    -4.2594    -0.0295 H       
  39 H39           -6.4196    -4.6091    -1.7755 H       
  40 H40            1.4965     3.0334     0.5259 H       
  41 H41            3.4955    -0.7324     0.2069 H       
  42 H42            1.3267    -1.8910     0.3088 H       
  43 H43            4.5903     1.5140    -0.2287 H       
  44 H44           -2.4786    -2.7592     2.5634 H       
  45 H45           -3.3278    -6.6943    -0.1831 H       
  46 H46           -3.2706    -6.3483     1.5618 H       
  47 H47           -5.2798    -7.6870     0.9693 H       
  48 H48           -5.7317    -6.0829     1.5966 H       
  49 H49           -7.1365    -8.7089    -1.0872 H       
  50 H50           -9.4972    -9.3627    -0.8382 H       
  51 H51           -5.4401    -8.0151    -1.4762 H       
  52 H52            5.8960     3.3912     0.2555 H       
  53 H53            5.3313     4.5489     1.3342 H       
  54 H54           -8.0603    -4.8103     0.3748 H       
  55 H55          -10.4214    -5.4623     0.6245 H       
@<TRIPOS>BOND
   1    1    2 ar
   2    1   10 ar
   3    1   30 1
   4    2    3 1
   5    2   13 ar
   6    3    4 1
   7    4    5 1
   8    4   31 1
   9    4   32 1
  10    5    6 1
  11    5   15 1
  12    5   33 1
  13    6    7 1
  14    6   34 1
  15    6   35 1
  16    7    8 1
  17    7   16 1
  18    8    9 1
  19    8   36 1
  20    8   37 1
  21    9   17 1
  22    9   38 1
  23    9   39 1
  24   10   11 ar
  25   10   40 1
  26   11   12 ar
  27   11   14 1
  28   12   13 ar
  29   12   41 1
  30   13   42 1
  31   14   23 am
  32   14   43 1
  33   15   44 1
  34   16   18 1
  35   16   45 1
  36   16   46 1
  37   17   18 1
  38   17   19 1
  39   17   22 1
  40   18   47 1
  41   18   48 1
  42   19   20 ar
  43   19   26 ar
  44   20   21 ar
  45   20   49 1
  46   21   28 ar
  47   21   50 1
  48   22   51 1
  49   23   24 2
  50   23   25 am
  51   25   52 1
  52   25   53 1
  53   26   27 ar
  54   26   54 1
  55   27   28 ar
  56   27   55 1
  57   28   29 1

#	End of record

