#	Name: ASD01900393
#	Creating user name:	WinNT
#	Creation time:	15. 06. 2019 19:51

#	Modifying user name:	WinNT
#	Modification time:	15. 06. 2019 19:51

#	Program:	/corina/corina34_cracker 3.40 0067  02.08.2006

@<TRIPOS>MOLECULE
ASD01900393
  25   27    0    0    0
SMALL
NO_CHARGES


@<TRIPOS>ATOM
   1 C1             0.0447     1.2843     0.5342 C.ar    
   2 N2             0.0491    -0.0239     0.4108 N.ar    
   3 C3             1.1753    -0.6666     0.1023 C.ar    
   4 C4             2.3575     0.0798    -0.0885 C.ar    
   5 C5             2.2934     1.4634     0.0552 C.ar    
   6 N6             1.1329     2.0156     0.3627 N.ar    
   7 N7             2.8140    -2.1075    -0.3938 N.2     
   8 N8             3.3484    -0.8142    -0.3906 N.pl3   
   9 C9             1.5383    -2.0658    -0.1087 C.2     
  10 N10            0.6763    -3.1637    -0.0214 N.pl3   
  11 C11            1.1831    -4.4614    -0.1387 C.ar    
  12 C12            2.4869    -4.7371     0.2537 C.ar    
  13 C13            2.9855    -6.0206     0.1367 C.ar    
  14 C14            2.1856    -7.0318    -0.3722 C.ar    
  15 C15            0.8865    -6.7583    -0.7639 C.ar    
  16 C16            0.3819    -5.4780    -0.6424 C.ar    
  17 F17            2.6747    -8.2859    -0.4863 F       
  18 Cl18           4.6146    -6.3665     0.6266 Cl      
  19 H19           -0.8824     1.7806     0.7803 H       
  20 H20            3.1744     2.0729    -0.0816 H       
  21 H21            4.2736    -0.5875    -0.5739 H       
  22 H22           -0.2732    -3.0249     0.1206 H       
  23 H23            3.1103    -3.9490     0.6495 H       
  24 H24            0.2652    -7.5476    -1.1608 H       
  25 H25           -0.6334    -5.2666    -0.9439 H       
@<TRIPOS>BOND
   1    1    2 ar
   2    1    6 ar
   3    1   19 1
   4    2    3 ar
   5    3    4 ar
   6    3    9 1
   7    4    5 ar
   8    4    8 1
   9    5    6 ar
  10    5   20 1
  11    7    8 1
  12    7    9 2
  13    8   21 1
  14    9   10 1
  15   10   11 1
  16   10   22 1
  17   11   12 ar
  18   11   16 ar
  19   12   13 ar
  20   12   23 1
  21   13   14 ar
  22   13   18 1
  23   14   15 ar
  24   14   17 1
  25   15   16 ar
  26   15   24 1
  27   16   25 1

#	End of record

