#	Name: ASD03092205
#	Creating user name:	WinNT
#	Creation time:	15. 06. 2019 20:32

#	Modifying user name:	WinNT
#	Modification time:	15. 06. 2019 20:32

#	Program:	/corina/corina34_cracker 3.40 0067  02.08.2006

@<TRIPOS>MOLECULE
ASD03092205
  45   47    0    0    0
SMALL
NO_CHARGES


@<TRIPOS>ATOM
   1 C1            -0.0790     1.5693     0.3223 C.ar    
   2 C2            -0.0321     0.1957     0.2020 C.ar    
   3 C3            -1.2318    -0.5192     0.1164 C.ar    
   4 C4            -2.4320     0.1981     0.1571 C.ar    
   5 C5            -2.3866     1.5720     0.2792 C.ar    
   6 N6            -1.2334     2.2068     0.3619 N.ar    
   7 C7            -1.2309    -1.9935    -0.0142 C.2     
   8 C8             1.2056     2.3515     0.4160 C.3     
   9 N9            -2.2633    -2.8176     0.2723 N.pl3   
  10 N10           -1.8162    -4.1210     0.0016 N.2     
  11 C11           -0.5765    -4.0203    -0.4210 C.2     
  12 N12           -0.2254    -2.7338    -0.4357 N.2     
  13 C13           -3.5859    -2.4283     0.7675 C.3     
  14 C14           -4.5386    -2.2418    -0.4150 C.3     
  15 O15           -4.7347    -3.4959    -1.0713 O.3     
  16 C16           -5.8831    -1.7154     0.0913 C.3     
  17 C17           -6.7930    -1.4108    -1.1004 C.3     
  18 N18            0.2402    -5.0876    -0.7988 N.pl3   
  19 C19            1.5237    -4.8430    -1.3022 C.ar    
  20 C20            2.0426    -3.5558    -1.2869 C.ar    
  21 C21            3.3096    -3.3152    -1.7839 C.ar    
  22 C22            4.0630    -4.3562    -2.2974 C.ar    
  23 C23            3.5488    -5.6442    -2.3149 C.ar    
  24 C24            2.2825    -5.8904    -1.8128 C.ar    
  25 F25            4.2857    -6.6591    -2.8170 F       
  26 F26            1.7804    -7.1445    -1.8292 F       
  27 F27            5.3010    -4.1175    -2.7829 F       
  28 H28            0.9165    -0.3199     0.1740 H       
  29 H29           -3.3800    -0.3155     0.0936 H       
  30 H30           -3.3079     2.1346     0.3115 H       
  31 H31            1.5350     2.6305    -0.5849 H       
  32 H32            1.0406     3.2516     1.0082 H       
  33 H33            1.9705     1.7383     0.8925 H       
  34 H34           -3.9714    -3.2074     1.4252 H       
  35 H35           -3.5059    -1.4926     1.3207 H       
  36 H36           -4.1100    -1.5272    -1.1177 H       
  37 H37           -5.1143    -4.1813    -0.5044 H       
  38 H38           -6.3530    -2.4683     0.7241 H       
  39 H39           -5.7227    -0.8046     0.6681 H       
  40 H40           -6.3231    -0.6580    -1.7333 H       
  41 H41           -6.9534    -2.3217    -1.6773 H       
  42 H42           -7.7508    -1.0358    -0.7397 H       
  43 H43           -0.0815    -5.9986    -0.7126 H       
  44 H44            1.4560    -2.7420    -0.8868 H       
  45 H45            3.7122    -2.3131    -1.7718 H       
@<TRIPOS>BOND
   1    1    2 ar
   2    1    8 1
   3    1    6 ar
   4    2    3 ar
   5    2   28 1
   6    3    4 ar
   7    3    7 1
   8    4    5 ar
   9    4   29 1
  10    5    6 ar
  11    5   30 1
  12    7    9 1
  13    7   12 2
  14    8   31 1
  15    8   32 1
  16    8   33 1
  17    9   10 1
  18    9   13 1
  19   10   11 2
  20   11   12 1
  21   11   18 1
  22   13   14 1
  23   13   34 1
  24   13   35 1
  25   14   15 1
  26   14   16 1
  27   14   36 1
  28   15   37 1
  29   16   17 1
  30   16   38 1
  31   16   39 1
  32   17   40 1
  33   17   41 1
  34   17   42 1
  35   18   19 1
  36   18   43 1
  37   19   20 ar
  38   19   24 ar
  39   20   21 ar
  40   20   44 1
  41   21   22 ar
  42   21   45 1
  43   22   23 ar
  44   22   27 1
  45   23   24 ar
  46   23   25 1
  47   24   26 1

#	End of record

