#	Name: ASD00460065
#	Creating user name:	WinNT
#	Creation time:	15. 06. 2019 18:36

#	Modifying user name:	WinNT
#	Modification time:	15. 06. 2019 18:36

#	Program:	/corina/corina34_cracker 3.40 0067  02.08.2006

@<TRIPOS>MOLECULE
ASD00460065
  69   71    0    0    0
SMALL
NO_CHARGES


@<TRIPOS>ATOM
   1 C1             0.6348     1.8768     1.6330 C.ar    
   2 C2             0.4572     0.9959     0.5813 C.ar    
   3 C3             1.5027     0.1991     0.1610 C.ar    
   4 C4             2.7396     0.2833     0.7985 C.ar    
   5 C5             2.9126     1.1729     1.8578 C.ar    
   6 C6             1.8600     1.9647     2.2693 C.ar    
   7 C7             3.8666    -0.5704     0.3519 C.ar    
   8 C8             4.4879    -1.4334     1.2553 C.ar    
   9 C9             5.5344    -2.2260     0.8423 C.ar    
  10 C10            5.9746    -2.1666    -0.4831 C.ar    
  11 C11            5.3512    -1.3022    -1.3870 C.ar    
  12 C12            4.3011    -0.5142    -0.9724 C.ar    
  13 C13            6.2058    -3.1573     1.8185 C.3     
  14 C14            7.0970    -3.0157    -0.9274 C.2     
  15 O15            7.6091    -2.8626    -2.1642 O.3     
  16 O16            7.5593    -3.8526    -0.1779 O.2     
  17 C17            3.6249     0.4140    -1.9483 C.3     
  18 O18            3.7948    -0.0852    -3.2764 O.3     
  19 C19            2.7254     0.2479    -4.1638 C.3     
  20 C20            3.0120    -0.3345    -5.5492 C.3     
  21 C21            1.8121    -0.0858    -6.4653 C.3     
  22 N22            2.0368    -0.7479    -7.7572 N.3     
  23 C23            0.9023    -0.5302    -8.6647 C.3     
  24 C24            4.2489     1.8070    -1.8433 C.3     
  25 C25           -0.3705    -1.1007    -8.0360 C.3     
  26 C26            0.7234     0.9699    -8.9068 C.3     
  27 C27            1.1725    -1.2330    -9.9966 C.3     
  28 C28            0.0086    -1.0097   -10.9276 C.ar    
  29 C29           -2.1202    -1.6934   -11.7862 C.ar    
  30 C30           -1.0515    -1.8966   -10.9329 C.ar    
  31 C31           -0.0005     0.0851   -11.7716 C.ar    
  32 C32           -1.0692     0.2904   -12.6267 C.ar    
  33 C33           -2.1293    -0.6023   -12.6356 C.ar    
  34 O34            4.1705     0.2951    -6.1002 O.3     
  35 Cl35          -3.4710    -0.3468   -13.7072 Cl      
  36 F36           -1.0792     1.3603   -13.4516 F       
  37 H37           -0.1849     2.5016     1.9556 H       
  38 H38           -0.5016     0.9312     0.0884 H       
  39 H39            1.3628    -0.4885    -0.6599 H       
  40 H40            3.8687     1.2424     2.3553 H       
  41 H41            1.9930     2.6545     3.0896 H       
  42 H42            4.1476    -1.4791     2.2793 H       
  43 H43            5.6905    -1.2551    -2.4112 H       
  44 H44            5.7875    -4.1582     1.7123 H       
  45 H45            7.2761    -3.1873     1.6146 H       
  46 H46            6.0394    -2.7999     2.8347 H       
  47 H47            8.3435    -3.4416    -2.4101 H       
  48 H48            2.5616     0.4737    -1.7158 H       
  49 H49            1.7930    -0.1671    -3.7810 H       
  50 H50            2.6378     1.3319    -4.2364 H       
  51 H51            3.1875    -1.4069    -5.4634 H       
  52 H52            0.9116    -0.4892    -6.0021 H       
  53 H53            1.6909     0.9859    -6.6225 H       
  54 H54            2.9003    -0.4378    -8.1771 H       
  55 H55            5.2923     1.7621    -2.1552 H       
  56 H56            3.7061     2.4978    -2.4885 H       
  57 H57            4.1927     2.1534    -0.8114 H       
  58 H58           -0.5629    -0.6000    -7.0871 H       
  59 H59           -1.2123    -0.9392    -8.7093 H       
  60 H60           -0.2430    -2.1694    -7.8635 H       
  61 H61            1.6302     1.3763    -9.3547 H       
  62 H62           -0.1184     1.1314    -9.5801 H       
  63 H63            0.5310     1.4706    -7.9579 H       
  64 H64            2.0792    -0.8266   -10.4446 H       
  65 H65            1.2999    -2.3017    -9.8242 H       
  66 H66           -2.9478    -2.3872   -11.7897 H       
  67 H67           -1.0450    -2.7492   -10.2700 H       
  68 H68            0.8260     0.7802   -11.7635 H       
  69 H69            4.0853     1.2526    -6.2053 H       
@<TRIPOS>BOND
   1    1    2 ar
   2    1    6 ar
   3    1   37 1
   4    2    3 ar
   5    2   38 1
   6    3    4 ar
   7    3   39 1
   8    4    5 ar
   9    4    7 1
  10    5    6 ar
  11    5   40 1
  12    6   41 1
  13    7    8 ar
  14    7   12 ar
  15    8    9 ar
  16    8   42 1
  17    9   10 ar
  18    9   13 1
  19   10   11 ar
  20   10   14 1
  21   11   12 ar
  22   11   43 1
  23   12   17 1
  24   13   44 1
  25   13   45 1
  26   13   46 1
  27   14   15 1
  28   14   16 2
  29   15   47 1
  30   17   24 1
  31   17   18 1
  32   17   48 1
  33   18   19 1
  34   19   20 1
  35   19   49 1
  36   19   50 1
  37   20   21 1
  38   20   34 1
  39   20   51 1
  40   21   22 1
  41   21   52 1
  42   21   53 1
  43   22   23 1
  44   22   54 1
  45   23   25 1
  46   23   26 1
  47   23   27 1
  48   24   55 1
  49   24   56 1
  50   24   57 1
  51   25   58 1
  52   25   59 1
  53   25   60 1
  54   26   61 1
  55   26   62 1
  56   26   63 1
  57   27   28 1
  58   27   64 1
  59   27   65 1
  60   28   31 ar
  61   28   30 ar
  62   29   30 ar
  63   29   33 ar
  64   29   66 1
  65   30   67 1
  66   31   32 ar
  67   31   68 1
  68   32   33 ar
  69   32   36 1
  70   33   35 1
  71   34   69 1

#	End of record

