#	Name: ASD01148785
#	Creating user name:	WinNT
#	Creation time:	15. 06. 2019 19:03

#	Modifying user name:	WinNT
#	Modification time:	15. 06. 2019 19:03

#	Program:	/corina/corina34_cracker 3.40 0067  02.08.2006

@<TRIPOS>MOLECULE
ASD01148785
  58   61    0    0    0
SMALL
NO_CHARGES


@<TRIPOS>ATOM
   1 N1             0.0434     1.3919    -0.2311 N.pl3   
   2 C2            -0.0126     0.0401    -0.1851 C.2     
   3 C3             1.2407    -0.4489     0.1116 C.2     
   4 C4             2.1185     0.7246     0.2540 C.2     
   5 C5             1.3185     1.8277     0.0305 C.2     
   6 C6             1.6248    -1.8603     0.2573 C.2     
   7 O7             2.0098    -2.4884    -0.7097 O.2     
   8 O8             1.5501    -2.4581     1.4632 O.3     
   9 C9            -1.0451     2.2278    -0.5119 C.ar    
  10 C10           -2.1002     2.3216     0.3860 C.ar    
  11 C11           -3.1717     3.1470     0.1065 C.ar    
  12 C12           -3.1945     3.8796    -1.0661 C.ar    
  13 C13           -2.1456     3.7880    -1.9625 C.ar    
  14 C14           -1.0685     2.9688    -1.6860 C.ar    
  15 S15           -4.5633     4.9315    -1.4191 S.o2    
  16 O16           -4.5912     5.0937    -2.8305 O.2     
  17 O17           -5.6616     4.4248    -0.6731 O.2     
  18 N18           -4.2139     6.4204    -0.7841 N.am    
  19 C19           -1.2455    -0.7942    -0.4198 C.3     
  20 C20            3.5641     0.7223     0.5728 C.ar    
  21 C21            4.4785     0.1965    -0.3370 C.ar    
  22 C22            5.8378     0.1982    -0.0291 C.ar    
  23 C23            6.2741     0.7267     1.1887 C.ar    
  24 C24            5.3619     1.2460     2.0852 C.ar    
  25 C25            4.0142     1.2523     1.7832 C.ar    
  26 C26            6.7849    -0.3407    -0.9582 C.1     
  27 N27            7.5362    -0.7682    -1.6953 N.1     
  28 C28            1.7598     3.2362     0.0659 C.ar    
  29 C29            1.0974     4.1584     0.8792 C.ar    
  30 C30            1.5149     5.4726     0.9081 C.ar    
  31 C31            2.5883     5.8784     0.1329 C.ar    
  32 C32            3.2493     4.9689    -0.6756 C.ar    
  33 C33            2.8450     3.6507    -0.7094 C.ar    
  34 Cl34           3.1073     7.5345     0.1745 Cl      
  35 C35            1.9453    -3.8535     1.5329 C.3     
  36 C36            1.7943    -4.3552     2.9704 C.3     
  37 H37           -2.0831     1.7494     1.3018 H       
  38 H38           -3.9928     3.2200     0.8042 H       
  39 H39           -2.1666     4.3609    -2.8778 H       
  40 H40           -0.2474     2.9014    -2.3842 H       
  41 H41           -3.3734     6.5655    -0.3221 H       
  42 H42           -4.8497     7.1474    -0.8741 H       
  43 H43           -1.3226    -1.0385    -1.4793 H       
  44 H44           -1.1778    -1.7139     0.1612 H       
  45 H45           -2.1278    -0.2334    -0.1111 H       
  46 H46            4.1356    -0.2109    -1.2765 H       
  47 H47            7.3270     0.7285     1.4291 H       
  48 H48            5.7041     1.6530     3.0252 H       
  49 H49            3.3064     1.6642     2.4872 H       
  50 H50            0.2600     3.8432     1.4839 H       
  51 H51            1.0033     6.1868     1.5363 H       
  52 H52            4.0856     5.2916    -1.2780 H       
  53 H53            3.3641     2.9414    -1.3369 H       
  54 H54            1.3099    -4.4445     0.8732 H       
  55 H55            2.9849    -3.9527     1.2207 H       
  56 H56            2.4297    -3.7643     3.6300 H       
  57 H57            0.7547    -4.2561     3.2825 H       
  58 H58            2.0910    -5.4028     3.0226 H       
@<TRIPOS>BOND
   1    1    2 1
   2    1    5 1
   3    1    9 1
   4    2    3 2
   5    2   19 1
   6    3    4 1
   7    3    6 1
   8    4    5 2
   9    4   20 1
  10    5   28 1
  11    6    7 2
  12    6    8 1
  13    8   35 1
  14    9   10 ar
  15    9   14 ar
  16   10   11 ar
  17   10   37 1
  18   11   12 ar
  19   11   38 1
  20   12   13 ar
  21   12   15 1
  22   13   14 ar
  23   13   39 1
  24   14   40 1
  25   15   16 2
  26   15   17 2
  27   15   18 am
  28   18   41 1
  29   18   42 1
  30   19   43 1
  31   19   44 1
  32   19   45 1
  33   20   21 ar
  34   20   25 ar
  35   21   22 ar
  36   21   46 1
  37   22   23 ar
  38   22   26 1
  39   23   24 ar
  40   23   47 1
  41   24   25 ar
  42   24   48 1
  43   25   49 1
  44   26   27 3
  45   28   29 ar
  46   28   33 ar
  47   29   30 ar
  48   29   50 1
  49   30   31 ar
  50   30   51 1
  51   31   32 ar
  52   31   34 1
  53   32   33 ar
  54   32   52 1
  55   33   53 1
  56   35   36 1
  57   35   54 1
  58   35   55 1
  59   36   56 1
  60   36   57 1
  61   36   58 1

#	End of record

