#	Name: ASD01230038
#	Creating user name:	WinNT
#	Creation time:	15. 06. 2019 19:11

#	Modifying user name:	WinNT
#	Modification time:	15. 06. 2019 19:11

#	Program:	/corina/corina34_cracker 3.40 0067  02.08.2006

@<TRIPOS>MOLECULE
ASD01230038
  30   32    0    0    0
SMALL
NO_CHARGES


@<TRIPOS>ATOM
   1 C1            -0.0166     1.3765     0.0096 C.ar    
   2 C2             0.0021    -0.0041     0.0020 C.ar    
   3 C3            -1.1916    -0.7197    -0.0040 C.ar    
   4 C4            -2.4276    -0.0394    -0.0020 C.ar    
   5 C5            -2.4168     1.3450     0.0324 C.ar    
   6 C6            -1.2285     2.0475     0.0306 C.ar    
   7 N7            -3.5824    -0.8031    -0.0730 N.3     
   8 C8            -4.7776    -0.2544     0.5544 C.3     
   9 N9            -5.1081     1.0418    -0.0745 N.am    
  10 S10           -3.9479     2.2286     0.1195 S.o2    
  11 O11           -4.0705     2.7129     1.4498 O.2     
  12 O12           -4.0110     3.0605    -1.0308 O.2     
  13 C13           -5.9448    -1.2256     0.3664 C.3     
  14 Cl14           1.4729     2.2681     0.0002 Cl      
  15 C15           -1.1643    -2.1966    -0.0130 C.2     
  16 C16           -0.4408    -2.9763    -0.8602 C.2     
  17 C17           -0.7146    -4.3150    -0.5138 C.2     
  18 C18           -1.5820    -4.2865     0.5164 C.2     
  19 O19           -1.8472    -3.0048     0.8203 O.3     
  20 H20            0.9454    -0.5300     0.0004 H       
  21 H21           -1.2437     3.1274     0.0363 H       
  22 H22           -3.7704    -1.0869    -1.0228 H       
  23 H23           -4.5946    -0.1063     1.6187 H       
  24 H24           -5.9335     1.1918    -0.5613 H       
  25 H25           -5.6993    -2.1822     0.8276 H       
  26 H26           -6.8386    -0.8147     0.8359 H       
  27 H27           -6.1280    -1.3717    -0.6981 H       
  28 H28            0.2163    -2.6357    -1.6468 H       
  29 H29           -0.3065    -5.1967    -0.9854 H       
  30 H30           -1.9930    -5.1504     1.0176 H       
@<TRIPOS>BOND
   1    1    2 ar
   2    1   14 1
   3    1    6 ar
   4    2    3 ar
   5    2   20 1
   6    3    4 ar
   7    3   15 1
   8    4    5 ar
   9    4    7 1
  10    5    6 ar
  11    5   10 1
  12    6   21 1
  13    7    8 1
  14    7   22 1
  15    8    9 1
  16    8   13 1
  17    8   23 1
  18    9   10 am
  19    9   24 1
  20   10   11 2
  21   10   12 2
  22   13   25 1
  23   13   26 1
  24   13   27 1
  25   15   16 2
  26   15   19 1
  27   16   17 1
  28   16   28 1
  29   17   18 2
  30   17   29 1
  31   18   19 1
  32   18   30 1

#	End of record

