#	Name: ASD03950019
#	Creating user name:	WinNT
#	Creation time:	15. 06. 2019 20:48

#	Modifying user name:	WinNT
#	Modification time:	15. 06. 2019 20:48

#	Program:	/corina/corina34_cracker 3.40 0067  02.08.2006

@<TRIPOS>MOLECULE
ASD03950019
  68   72    0    0    0
SMALL
NO_CHARGES


@<TRIPOS>ATOM
   1 N1            -0.1353     1.7472    -0.7798 N.pl3   
   2 N2            -0.1808     0.3500    -0.7424 N.2     
   3 C3             1.0208    -0.1326    -0.6050 C.2     
   4 C4             1.9473     0.9952    -0.5443 C.ar    
   5 C5             3.3338     1.1006    -0.4061 C.ar    
   6 C6             3.9337     2.3517    -0.3829 C.ar    
   7 C7             3.1606     3.5084    -0.4968 C.ar    
   8 C8             1.7809     3.4207    -0.6343 C.ar    
   9 C9             1.1615     2.1573    -0.6596 C.ar    
  10 C10            0.9689     4.6465    -0.7542 C.2     
  11 O11           -0.2384     4.5667    -0.8745 O.2     
  12 N12            1.5653     5.8549    -0.7305 N.am    
  13 C13            5.4066     2.4607    -0.2355 C.ar    
  14 C14            6.0148     3.7128    -0.2115 C.ar    
  15 C15            7.3915     3.8079    -0.0736 C.ar    
  16 C16            8.1593     2.6547     0.0401 C.ar    
  17 C17            7.5544     1.4127     0.0161 C.ar    
  18 C18            6.1835     1.3102    -0.1152 C.ar    
  19 N19            8.0064     5.0620    -0.0494 N.am    
  20 S20            7.9001     6.0103     1.3040 S.o2    
  21 O21            8.6445     7.1752     0.9750 O.2     
  22 O22            6.5066     6.0829     1.5725 O.2     
  23 C23            8.7479     5.0561     2.5930 C.3     
  24 N24            0.8055    -4.3591    -0.5010 N.am    
  25 C25            1.0946    -3.7016     0.7807 C.3     
  26 C26            0.6906    -2.2273     0.6808 C.3     
  27 C27            1.3892    -1.5916    -0.5234 C.3     
  28 C28            0.9472    -2.3016    -1.8051 C.3     
  29 C29            1.3541    -3.7767    -1.7333 C.3     
  30 S30           -0.1154    -5.7344    -0.5550 S.o2    
  31 O31            0.2364    -6.4059    -1.7569 O.2     
  32 O32           -0.0151    -6.3351     0.7289 O.2     
  33 C33           -3.6642    -4.6702    -1.6578 C.2     
  34 N34           -2.4357    -5.0374    -1.9008 N.2     
  35 C35           -1.7939    -5.2313    -0.7391 C.2     
  36 C36           -2.6575    -4.9744     0.2618 C.2     
  37 N37           -3.8440    -4.6184    -0.3204 N.pl3   
  38 C38           -4.7074    -4.3505    -2.6973 C.3     
  39 C39           -5.0786    -4.2501     0.3771 C.3     
  40 H40           -0.9027     2.3320    -0.8795 H       
  41 H41            3.9376     0.2096    -0.3171 H       
  42 H42            3.6377     4.4771    -0.4775 H       
  43 H43            2.5285     5.9186    -0.6346 H       
  44 H44            1.0314     6.6609    -0.8094 H       
  45 H45            5.4163     4.6074    -0.3003 H       
  46 H46            9.2313     2.7297     0.1471 H       
  47 H47            8.1550     0.5195     0.1047 H       
  48 H48            5.7138     0.3378    -0.1290 H       
  49 H49            8.4957     5.3773    -0.8253 H       
  50 H50            9.7549     4.8075     2.2580 H       
  51 H51            8.8046     5.6490     3.5059 H       
  52 H52            8.1935     4.1384     2.7896 H       
  53 H53            0.5249    -4.1835     1.5753 H       
  54 H54            2.1605    -3.7746     0.9966 H       
  55 H55           -0.3897    -2.1538     0.5552 H       
  56 H56            0.9879    -1.7061     1.5907 H       
  57 H57            2.4689    -1.6877    -0.4092 H       
  58 H58           -0.1355    -2.2274    -1.9072 H       
  59 H59            1.4271    -1.8332    -2.6644 H       
  60 H60            2.4412    -3.8558    -1.7224 H       
  61 H61            0.9556    -4.3081    -2.5975 H       
  62 H62           -2.4532    -5.0375     1.3204 H       
  63 H63           -5.2546    -5.2576    -2.9538 H       
  64 H64           -5.4000    -3.6082    -2.3007 H       
  65 H65           -4.2220    -3.9546    -3.5894 H       
  66 H66           -5.6794    -5.1432     0.5486 H       
  67 H67           -4.8318    -3.7891     1.3335 H       
  68 H68           -5.6430    -3.5439    -0.2318 H       
@<TRIPOS>BOND
   1    1    2 1
   2    1    9 1
   3    1   40 1
   4    2    3 2
   5    3    4 1
   6    3   27 1
   7    4    5 ar
   8    4    9 ar
   9    5    6 ar
  10    5   41 1
  11    6    7 ar
  12    6   13 1
  13    7    8 ar
  14    7   42 1
  15    8    9 ar
  16    8   10 1
  17   10   11 2
  18   10   12 am
  19   12   43 1
  20   12   44 1
  21   13   14 ar
  22   13   18 ar
  23   14   15 ar
  24   14   45 1
  25   15   16 ar
  26   15   19 1
  27   16   17 ar
  28   16   46 1
  29   17   18 ar
  30   17   47 1
  31   18   48 1
  32   19   20 am
  33   19   49 1
  34   20   21 2
  35   20   22 2
  36   20   23 1
  37   23   50 1
  38   23   51 1
  39   23   52 1
  40   24   25 1
  41   24   29 1
  42   24   30 am
  43   25   26 1
  44   25   53 1
  45   25   54 1
  46   26   27 1
  47   26   55 1
  48   26   56 1
  49   27   28 1
  50   27   57 1
  51   28   29 1
  52   28   58 1
  53   28   59 1
  54   29   60 1
  55   29   61 1
  56   30   31 2
  57   30   32 2
  58   30   35 1
  59   33   34 2
  60   33   37 1
  61   33   38 1
  62   34   35 1
  63   35   36 2
  64   36   37 1
  65   36   62 1
  66   37   39 1
  67   38   63 1
  68   38   64 1
  69   38   65 1
  70   39   66 1
  71   39   67 1
  72   39   68 1

#	End of record

