#	Name: ASD01820019
#	Creating user name:	WinNT
#	Creation time:	15. 06. 2019 19:36

#	Modifying user name:	WinNT
#	Modification time:	15. 06. 2019 19:36

#	Program:	/corina/corina34_cracker 3.40 0067  02.08.2006

@<TRIPOS>MOLECULE
ASD01820019
  40   41    0    0    0
SMALL
NO_CHARGES


@<TRIPOS>ATOM
   1 C1            -0.0167     1.3776     0.0096 C.ar    
   2 C2             0.0021    -0.0041     0.0020 C.ar    
   3 C3             1.2066    -0.6906    -0.0127 C.ar    
   4 C4             2.3989     0.0146    -0.0203 C.ar    
   5 C5             2.3798     1.4243    -0.0130 C.ar    
   6 C6             1.1688     2.0968     0.0022 C.ar    
   7 C7             3.8260    -0.3703    -0.0355 C.2     
   8 N8             4.5720     0.7492    -0.0368 N.am    
   9 C9             3.7959     1.8479    -0.0241 C.2     
  10 O10            4.1925     2.9958    -0.0216 O.2     
  11 O11            4.2535    -1.5070    -0.0446 O.2     
  12 C12            6.0368     0.7691    -0.0497 C.3     
  13 C13            6.5340     0.7828    -1.4966 C.3     
  14 C14            8.0638     0.8036    -1.5099 C.3     
  15 N15            8.5412     0.8168    -2.8991 N.4     
  16 C16            8.0292     2.0127    -3.5815 C.3     
  17 C17           10.0100     0.8368    -2.9120 C.3     
  18 C18           10.5072     0.8505    -4.3589 C.3     
  19 C19            8.0617    -0.3859    -3.5931 C.3     
  20 H20           -0.9613     1.9011     0.0169 H       
  21 H21           -0.9280    -0.5530     0.0079 H       
  22 H22            1.2153    -1.7705    -0.0179 H       
  23 H23            1.1481     3.1765     0.0074 H       
  24 H24            6.3925     1.6615     0.4652 H       
  25 H25            6.4167    -0.1183     0.4567 H       
  26 H26            6.1782    -0.1096    -2.0115 H       
  27 H27            6.1541     1.6702    -2.0029 H       
  28 H28            8.4195     1.6960    -0.9950 H       
  29 H29            8.4437    -0.0837    -1.0036 H       
  30 H30            8.3850     2.9051    -3.0666 H       
  31 H31            8.3834     2.0224    -4.6123 H       
  32 H32            6.9394     1.9979    -3.5720 H       
  33 H33           10.3657     1.7292    -2.3971 H       
  34 H34           10.3899    -0.0506    -2.4057 H       
  35 H35           10.1515    -0.0420    -4.8738 H       
  36 H36           10.1273     1.7378    -4.8652 H       
  37 H37           11.5971     0.8653    -4.3684 H       
  38 H38            6.9719    -0.4008    -3.5836 H       
  39 H39            8.4160    -0.3762    -4.6239 H       
  40 H40            8.4416    -1.2733    -3.0868 H       
@<TRIPOS>BOND
   1    1    2 ar
   2    1    6 ar
   3    1   20 1
   4    2    3 ar
   5    2   21 1
   6    3    4 ar
   7    3   22 1
   8    4    5 ar
   9    4    7 1
  10    5    6 ar
  11    5    9 1
  12    6   23 1
  13    7    8 am
  14    7   11 2
  15    8    9 am
  16    8   12 1
  17    9   10 2
  18   12   13 1
  19   12   24 1
  20   12   25 1
  21   13   14 1
  22   13   26 1
  23   13   27 1
  24   14   15 1
  25   14   28 1
  26   14   29 1
  27   15   16 1
  28   15   17 1
  29   15   19 1
  30   16   30 1
  31   16   31 1
  32   16   32 1
  33   17   18 1
  34   17   33 1
  35   17   34 1
  36   18   35 1
  37   18   36 1
  38   18   37 1
  39   19   38 1
  40   19   39 1
  41   19   40 1

#	End of record

