#	Name: ASD00069110
#	Creating user name:	WinNT
#	Creation time:	15. 06. 2019 18:29

#	Modifying user name:	WinNT
#	Modification time:	15. 06. 2019 18:29

#	Program:	/corina/corina34_cracker 3.40 0067  02.08.2006

@<TRIPOS>MOLECULE
ASD00069110
  58   61    0    0    0
SMALL
NO_CHARGES


@<TRIPOS>ATOM
   1 C1            -0.0162     1.3082     0.0437 C.2     
   2 N2            -0.0002    -0.0077     0.0318 N.2     
   3 C3             1.2694    -0.4286     0.0344 C.2     
   4 C4             2.0802     0.6707     0.0485 C.2     
   5 N5             1.2742     1.7582     0.0543 N.pl3   
   6 C6            -1.2226     2.1541     0.0398 C.2     
   7 O7            -1.1158     3.3657     0.0515 O.2     
   8 N8            -2.4444     1.5854     0.0233 N.am    
   9 N9             1.7146    -4.0327    -0.0539 N.pl3   
  10 N10            3.0402    -3.6019     0.0795 N.2     
  11 C11            3.0491    -2.2957     0.1264 C.2     
  12 C12            1.7193    -1.8448     0.0237 C.2     
  13 C13            0.9191    -2.9433    -0.0864 C.2     
  14 C14            1.2691    -5.4252    -0.1482 C.3     
  15 C15            1.9915    -6.1081    -1.2808 C.ar    
  16 C16            3.1928    -6.7508    -1.0467 C.ar    
  17 C17            3.8554    -7.3772    -2.0856 C.ar    
  18 C18            3.3166    -7.3614    -3.3585 C.ar    
  19 C19            2.1148    -6.7195    -3.5924 C.ar    
  20 C20            1.4500    -6.0968    -2.5526 C.ar    
  21 C21           -3.5893     2.3829     0.1390 C.ar    
  22 C22           -4.7586     2.0283    -0.5315 C.ar    
  23 C23           -5.8881     2.8210    -0.4133 C.ar    
  24 C24           -5.8541     3.9616     0.3680 C.ar    
  25 C25           -4.6948     4.3140     1.0334 C.ar    
  26 C26           -3.5648     3.5250     0.9258 C.ar    
  27 O27           -4.7902     0.9070    -1.3001 O.3     
  28 C28           -6.0226     0.6059    -1.9578 C.3     
  29 C29           -5.8662    -0.6817    -2.7694 C.3     
  30 N30           -5.6264    -1.8087    -1.8582 N.3     
  31 C31           -6.8036    -2.0661    -1.0180 C.3     
  32 C32           -5.2374    -3.0139    -2.6027 C.3     
  33 H33            3.1602     0.6719     0.0540 H       
  34 H34            1.5596     2.6852     0.0642 H       
  35 H35           -2.5305     0.6236    -0.0688 H       
  36 H36            3.9244    -1.6710     0.2264 H       
  37 H37           -0.1566    -2.9418    -0.1827 H       
  38 H38            1.4889    -5.9410     0.7865 H       
  39 H39            0.1953    -5.4513    -0.3338 H       
  40 H40            3.6138    -6.7631    -0.0522 H       
  41 H41            4.7943    -7.8786    -1.9029 H       
  42 H42            3.8346    -7.8502    -4.1704 H       
  43 H43            1.6940    -6.7069    -4.5870 H       
  44 H44            0.5093    -5.5985    -2.7346 H       
  45 H45           -6.7955     2.5486    -0.9318 H       
  46 H46           -6.7357     4.5789     0.4583 H       
  47 H47           -4.6730     5.2058     1.6421 H       
  48 H48           -2.6618     3.8003     1.4503 H       
  49 H49           -6.8084     0.4734    -1.2141 H       
  50 H50           -6.2882     1.4259    -2.6250 H       
  51 H51           -6.7763    -0.8637    -3.3409 H       
  52 H52           -5.0226    -0.5806    -3.4522 H       
  53 H53           -7.6574    -2.3048    -1.6521 H       
  54 H54           -6.5989    -2.9051    -0.3531 H       
  55 H55           -7.0278    -1.1791    -0.4254 H       
  56 H56           -4.3230    -2.8161    -3.1621 H       
  57 H57           -5.0659    -3.8329    -1.9041 H       
  58 H58           -6.0345    -3.2870    -3.2941 H       
@<TRIPOS>BOND
   1    1    2 2
   2    1    5 1
   3    1    6 1
   4    2    3 1
   5    3    4 2
   6    3   12 1
   7    4    5 1
   8    4   33 1
   9    5   34 1
  10    6    7 2
  11    6    8 am
  12    8   21 1
  13    8   35 1
  14    9   10 1
  15    9   13 1
  16    9   14 1
  17   10   11 2
  18   11   12 1
  19   11   36 1
  20   12   13 2
  21   13   37 1
  22   14   15 1
  23   14   38 1
  24   14   39 1
  25   15   16 ar
  26   15   20 ar
  27   16   17 ar
  28   16   40 1
  29   17   18 ar
  30   17   41 1
  31   18   19 ar
  32   18   42 1
  33   19   20 ar
  34   19   43 1
  35   20   44 1
  36   21   22 ar
  37   21   26 ar
  38   22   23 ar
  39   22   27 1
  40   23   24 ar
  41   23   45 1
  42   24   25 ar
  43   24   46 1
  44   25   26 ar
  45   25   47 1
  46   26   48 1
  47   27   28 1
  48   28   29 1
  49   28   49 1
  50   28   50 1
  51   29   30 1
  52   29   51 1
  53   29   52 1
  54   30   31 1
  55   30   32 1
  56   31   53 1
  57   31   54 1
  58   31   55 1
  59   32   56 1
  60   32   57 1
  61   32   58 1

#	End of record

