#	Name: ASD01885816
#	Creating user name:	WinNT
#	Creation time:	15. 06. 2019 19:50

#	Modifying user name:	WinNT
#	Modification time:	15. 06. 2019 19:50

#	Program:	/corina/corina34_cracker 3.40 0067  02.08.2006

@<TRIPOS>MOLECULE
ASD01885816
  52   55    0    0    0
SMALL
NO_CHARGES


@<TRIPOS>ATOM
   1 C1            -0.0160     1.3290     0.0093 C.ar    
   2 C2            -1.2537     2.0210     0.0189 C.ar    
   3 C3            -2.4925     1.2418     0.0209 C.ar    
   4 C4            -2.3734    -0.1465     0.0132 C.ar    
   5 C5            -1.1020    -0.7254     0.0041 C.ar    
   6 N6             0.0021    -0.0041     0.0020 N.ar    
   7 C7             1.1280     3.4322     0.0093 C.ar    
   8 C8            -0.0909     4.1062     0.0248 C.ar    
   9 C9            -1.2692     3.4194     0.0266 C.ar    
  10 C10           -3.8118     1.8985     0.0311 C.2     
  11 C11           -0.9898    -2.2040    -0.0045 C.2     
  12 C12            2.4114     4.2221     0.0082 C.3     
  13 N13            2.8383     4.4646     1.3928 N.3     
  14 C14            1.1792     2.0721     0.0019 C.ar    
  15 N15            0.2250    -2.7876    -0.0143 N.am    
  16 O16           -1.9931    -2.8893    -0.0027 O.2     
  17 C17            4.1984     5.0210     1.4350 C.3     
  18 C18            4.5794     5.3135     2.8887 C.3     
  19 O19            4.4612     4.1136     3.6578 O.3     
  20 C20            3.1492     3.5448     3.6394 C.3     
  21 C21            2.7537     3.2344     2.1933 C.3     
  22 C22           -4.8437     1.6293    -0.8029 C.2     
  23 N23           -5.9146     2.3566    -0.5858 N.2     
  24 C24           -5.8600     3.2212     0.3731 C.2     
  25 S25           -4.3310     3.1692     1.1360 S.3     
  26 C26           -6.9869     4.1410     0.7671 C.3     
  27 C27            6.0228     5.8177     2.9470 C.3     
  28 F28            6.1386     6.9887     2.1903 F       
  29 F29            6.3702     6.0847     4.2756 F       
  30 F30            6.8793     4.8407     2.4283 F       
  31 C31            3.1407     2.2533     4.4598 C.3     
  32 F32           -8.2113     3.5247     0.4875 F       
  33 F33           -6.9060     4.4178     2.1361 F       
  34 H34           -3.2558    -0.7692     0.0147 H       
  35 H35           -0.1030     5.1861     0.0359 H       
  36 H36           -2.2086     3.9523     0.0335 H       
  37 H37            3.1836     3.6598    -0.5169 H       
  38 H38            2.2508     5.1756    -0.4948 H       
  39 H39            2.1328     1.5653    -0.0092 H       
  40 H40            1.0259    -2.2404    -0.0157 H       
  41 H41            0.2983    -3.7548    -0.0200 H       
  42 H42            4.8994     4.3011     1.0127 H       
  43 H43            4.2318     5.9446     0.8571 H       
  44 H44            3.9117     6.0737     3.2941 H       
  45 H45            2.4394     4.2530     4.0668 H       
  46 H46            1.7326     2.8538     2.1689 H       
  47 H47            3.4317     2.4859     1.7832 H       
  48 H48           -4.7901     0.8813    -1.5802 H       
  49 H49           -6.9109     5.0708     0.2034 H       
  50 H50            3.4261     2.4744     5.4883 H       
  51 H51            2.1405     1.8203     4.4453 H       
  52 H52            3.8494     1.5453     4.0302 H       
@<TRIPOS>BOND
   1    1    6 ar
   2    1   14 ar
   3    1    2 ar
   4    2    3 ar
   5    2    9 ar
   6    3   10 1
   7    3    4 ar
   8    4    5 ar
   9    4   34 1
  10    5   11 1
  11    5    6 ar
  12    7   12 1
  13    7    8 ar
  14    7   14 ar
  15    8    9 ar
  16    8   35 1
  17    9   36 1
  18   10   22 2
  19   10   25 1
  20   11   15 am
  21   11   16 2
  22   12   13 1
  23   12   37 1
  24   12   38 1
  25   13   17 1
  26   13   21 1
  27   14   39 1
  28   15   40 1
  29   15   41 1
  30   17   18 1
  31   17   42 1
  32   17   43 1
  33   18   27 1
  34   18   19 1
  35   18   44 1
  36   19   20 1
  37   20   21 1
  38   20   31 1
  39   20   45 1
  40   21   46 1
  41   21   47 1
  42   22   23 1
  43   22   48 1
  44   23   24 2
  45   24   25 1
  46   24   26 1
  47   26   32 1
  48   26   33 1
  49   26   49 1
  50   27   28 1
  51   27   29 1
  52   27   30 1
  53   31   50 1
  54   31   51 1
  55   31   52 1

#	End of record

