#	Name: ASD04880719
#	Creating user name:	WinNT
#	Creation time:	15. 06. 2019 20:53

#	Modifying user name:	WinNT
#	Modification time:	15. 06. 2019 20:53

#	Program:	/corina/corina34_cracker 3.40 0067  02.08.2006

@<TRIPOS>MOLECULE
ASD04880719
  91   96    0    0    0
SMALL
NO_CHARGES


@<TRIPOS>ATOM
   1 C1            -1.0286     1.4735     3.1169 C.ar    
   2 C2            -1.0707     0.0930     3.1328 C.ar    
   3 C3            -0.3655    -0.6327     2.1906 C.ar    
   4 C4             0.3843     0.0206     1.2293 C.ar    
   5 C5             0.4304     1.4005     1.2074 C.ar    
   6 C6            -0.2770     2.1327     2.1527 C.ar    
   7 N7            -0.2325     3.5286     2.1335 N.3     
   8 C8            -0.8368     4.0578     0.9029 C.3     
   9 C9            -0.8403     5.5874     0.9564 C.3     
  10 N10            0.5379     6.0726     1.1138 N.3     
  11 C11            1.1422     5.5433     2.3444 C.3     
  12 C12            1.1457     4.0138     2.2909 C.3     
  13 C13            0.5822     7.4642     1.0946 C.ar    
  14 C14            0.9391     8.1610     2.2407 C.ar    
  15 C15            0.9849     9.5440     2.2258 C.ar    
  16 C16            0.6699    10.2417     1.0500 C.ar    
  17 C17            0.3106     9.5352    -0.1033 C.ar    
  18 C18            0.2726     8.1557    -0.0812 C.ar    
  19 C19           -1.8022     2.2636     4.1408 C.3     
  20 N20           -0.0823     7.4462    -1.2382 N.am    
  21 C21           -0.8802     8.0185    -2.1614 C.2     
  22 C22           -1.3288     7.2417    -3.3311 C.2     
  23 C23           -2.1305     7.6856    -4.3374 C.2     
  24 O24           -2.2876     6.6627    -5.1928 O.3     
  25 C25           -1.5979     5.6136    -4.7230 C.2     
  26 N26           -1.0145     5.9478    -3.6111 N.2     
  27 O27           -1.2301     9.1759    -2.0294 O.2     
  28 C28            0.7168    11.7130     1.0297 C.2     
  29 O29            1.3336    10.2244     3.3472 O.3     
  30 O30            1.0289    12.3254     2.0332 O.2     
  31 N31            0.4138    12.3813    -0.1008 N.am    
  32 C32            0.4605    13.8454    -0.1210 C.3     
  33 C33            0.0758    14.3488    -1.5137 C.3     
  34 C34            0.1245    15.8779    -1.5348 C.3     
  35 N35           -0.2438    16.3598    -2.8683 N.am    
  36 C36           -1.6153    16.6740    -3.2857 C.3     
  37 C37           -1.5783    16.7100    -4.8296 C.3     
  38 C38           -0.0961    17.0568    -5.1014 C.3     
  39 C39            0.6317    16.5766    -3.8650 C.2     
  40 O40            1.8302    16.4091    -3.7855 O.2     
  41 C41           -1.5084     4.2619    -5.3833 C.3     
  42 C42           -2.8135     3.4927    -5.5978 C.3     
  43 C43           -2.0921     4.1231    -6.7908 C.3     
  44 C44            1.6408     9.4490     4.5075 C.3     
  45 C45            2.0083    10.3828     5.6624 C.3     
  46 O46            0.8689    11.1665     6.0223 O.3     
  47 C47            1.1061    12.0773     7.0976 C.3     
  48 H48           -1.6550    -0.4202     3.8823 H       
  49 H49           -0.3999    -1.7120     2.2054 H       
  50 H50            0.9345    -0.5492     0.4952 H       
  51 H51            1.0164     1.9099     0.4568 H       
  52 H52           -0.2578     3.7254     0.0413 H       
  53 H53           -1.8608     3.6947     0.8153 H       
  54 H54           -1.2617     5.9827     0.0321 H       
  55 H55           -1.4419     5.9203     1.8023 H       
  56 H56            2.1662     5.9065     2.4320 H       
  57 H57            0.5632     5.8757     3.2060 H       
  58 H58            1.5670     3.6185     3.2152 H       
  59 H59            1.7472     3.6809     1.4451 H       
  60 H60            1.1811     7.6231     3.1454 H       
  61 H61            0.0670    10.0684    -1.0103 H       
  62 H62           -1.2076     2.3618     5.0490 H       
  63 H63           -2.0245     3.2539     3.7433 H       
  64 H64           -2.7339     1.7467     4.3705 H       
  65 H65            0.2466     6.5438    -1.3737 H       
  66 H66           -2.5591     8.6725    -4.4299 H       
  67 H67            0.1649    11.8929    -0.9010 H       
  68 H68           -0.2396    14.2415     0.6146 H       
  69 H69            1.4693    14.1802     0.1205 H       
  70 H70            0.7759    13.9528    -2.2493 H       
  71 H71           -0.9330    14.0141    -1.7552 H       
  72 H72           -0.5755    16.2739    -0.7991 H       
  73 H73            1.1334    16.2126    -1.2933 H       
  74 H74           -2.3008    15.8989    -2.9428 H       
  75 H75           -1.9160    17.6452    -2.8928 H       
  76 H76           -1.8344    15.7370    -5.2488 H       
  77 H77           -2.2379    17.4862    -5.2176 H       
  78 H78            0.2625    16.5315    -5.9866 H       
  79 H79            0.0286    18.1333    -5.2187 H       
  80 H80           -0.6154     3.6824    -5.1490 H       
  81 H81           -2.7790     2.4072    -5.5051 H       
  82 H82           -3.7368     3.9644    -5.2614 H       
  83 H83           -2.5408     5.0095    -7.2392 H       
  84 H84           -1.5830     3.4524    -7.4829 H       
  85 H85            0.7725     8.8515     4.7855 H       
  86 H86            2.4815     8.7896     4.2917 H       
  87 H87            2.3281     9.7912     6.5202 H       
  88 H88            2.8195    11.0417     5.3527 H       
  89 H89            0.1936    12.6342     7.3100 H       
  90 H90            1.4072    11.5209     7.9852 H       
  91 H91            1.8986    12.7714     6.8177 H       
@<TRIPOS>BOND
   1    1    2 ar
   2    1    6 ar
   3    1   19 1
   4    2    3 ar
   5    2   48 1
   6    3    4 ar
   7    3   49 1
   8    4    5 ar
   9    4   50 1
  10    5    6 ar
  11    5   51 1
  12    6    7 1
  13    7    8 1
  14    7   12 1
  15    8    9 1
  16    8   52 1
  17    8   53 1
  18    9   10 1
  19    9   54 1
  20    9   55 1
  21   10   11 1
  22   10   13 1
  23   11   12 1
  24   11   56 1
  25   11   57 1
  26   12   58 1
  27   12   59 1
  28   13   14 ar
  29   13   18 ar
  30   14   15 ar
  31   14   60 1
  32   15   16 ar
  33   15   29 1
  34   16   17 ar
  35   16   28 1
  36   17   18 ar
  37   17   61 1
  38   18   20 1
  39   19   62 1
  40   19   63 1
  41   19   64 1
  42   20   21 am
  43   20   65 1
  44   21   22 1
  45   21   27 2
  46   22   23 2
  47   22   26 1
  48   23   24 1
  49   23   66 1
  50   24   25 1
  51   25   26 2
  52   25   41 1
  53   28   30 2
  54   28   31 am
  55   29   44 1
  56   31   32 1
  57   31   67 1
  58   32   33 1
  59   32   68 1
  60   32   69 1
  61   33   34 1
  62   33   70 1
  63   33   71 1
  64   34   35 1
  65   34   72 1
  66   34   73 1
  67   35   36 1
  68   35   39 am
  69   36   37 1
  70   36   74 1
  71   36   75 1
  72   37   38 1
  73   37   76 1
  74   37   77 1
  75   38   39 1
  76   38   78 1
  77   38   79 1
  78   39   40 2
  79   41   42 1
  80   41   43 1
  81   41   80 1
  82   42   43 1
  83   42   81 1
  84   42   82 1
  85   43   83 1
  86   43   84 1
  87   44   45 1
  88   44   85 1
  89   44   86 1
  90   45   46 1
  91   45   87 1
  92   45   88 1
  93   46   47 1
  94   47   89 1
  95   47   90 1
  96   47   91 1

#	End of record

