#	Name: ASD04590996
#	Creating user name:	WinNT
#	Creation time:	15. 06. 2019 20:51

#	Modifying user name:	WinNT
#	Modification time:	15. 06. 2019 20:51

#	Program:	/corina/corina34_cracker 3.40 0067  02.08.2006

@<TRIPOS>MOLECULE
ASD04590996
  73   78    0    0    0
SMALL
NO_CHARGES


@<TRIPOS>ATOM
   1 N1            -2.3782    -2.7058     0.0204 N.ar    
   2 C2            -1.2117    -2.0738     0.0040 C.ar    
   3 N3            -0.0573    -2.7202    -0.0182 N.ar    
   4 C4            -0.0259    -4.0495    -0.0245 C.ar    
   5 C5            -1.2486    -4.7504    -0.0070 C.ar    
   6 C6            -2.4370    -4.0273     0.0156 C.ar    
   7 N7             0.9980    -4.9638    -0.0457 N.pl3   
   8 C8             0.4950    -6.2534    -0.0428 C.ar    
   9 C9            -0.9092    -6.1791    -0.0189 C.ar    
  10 C10            1.0915    -7.5075    -0.0583 C.ar    
  11 N11            0.3552    -8.6000    -0.0506 N.ar    
  12 C12           -0.9655    -8.5647    -0.0283 C.ar    
  13 C13           -1.6436    -7.3644    -0.0113 C.ar    
  14 C14            2.4226    -4.6227    -0.0685 C.3     
  15 N15           -1.2019    -0.6887     0.0098 N.pl3   
  16 C16           -2.4013     0.0175    -0.0802 C.ar    
  17 N17           -3.5340    -0.6390    -0.2721 N.ar    
  18 C18           -4.6918    -0.0124    -0.3634 C.ar    
  19 C19           -4.7605     1.3688    -0.2608 C.ar    
  20 C20           -3.5874     2.0945    -0.0583 C.ar    
  21 C21           -2.3937     1.4030     0.0384 C.ar    
  22 N22           -5.9924     2.0264    -0.3597 N.3     
  23 C23            2.7314    -3.7958    -1.3205 C.3     
  24 C24            4.2039    -3.3777    -1.2959 C.3     
  25 O25            4.4686    -2.6409    -0.1004 O.3     
  26 C26            4.2428    -3.3794     1.1021 C.3     
  27 C27            2.7719    -3.7976     1.1739 C.3     
  28 C28           -7.0853     1.0679    -0.5714 C.3     
  29 C29           -8.4275     1.8031    -0.4931 C.3     
  30 N30           -8.3980     2.9311    -1.4365 N.am    
  31 C31           -7.2590     3.8596    -1.3757 C.3     
  32 C32           -5.9628     3.0434    -1.4193 C.3     
  33 O33           -9.3438     4.1482    -3.1881 O.3     
  34 C34          -10.4449     4.2781    -4.1257 C.3     
  35 C35          -11.7561     4.4379    -3.3535 C.3     
  36 C36          -10.2203     5.5070    -5.0090 C.3     
  37 C37          -10.5186     3.0265    -5.0024 C.3     
  38 C38           -9.3888     3.1094    -2.3327 C.2     
  39 O39          -10.3225     2.3328    -2.3686 O.2     
  40 H40           -3.3898    -4.5356     0.0290 H       
  41 H41            2.1683    -7.5879    -0.0770 H       
  42 H42           -1.5222    -9.4902    -0.0233 H       
  43 H43           -2.7232    -7.3426     0.0072 H       
  44 H44            3.0163    -5.5367    -0.0796 H       
  45 H45           -0.3610    -0.2099     0.0765 H       
  46 H46           -5.5960    -0.5817    -0.5203 H       
  47 H47           -3.6110     3.1710     0.0253 H       
  48 H48           -1.4660     1.9332     0.1955 H       
  49 H49            2.5378    -4.3954    -2.2099 H       
  50 H50            2.1005    -2.9071    -1.3348 H       
  51 H51            4.8346    -4.2663    -1.3225 H       
  52 H52            4.4189    -2.7530    -2.1629 H       
  53 H53            4.8741    -4.2680     1.1069 H       
  54 H54            4.4859    -2.7560     1.9626 H       
  55 H55            2.1419    -2.9089     1.2099 H       
  56 H56            2.6073    -4.3985     2.0683 H       
  57 H57           -6.9797     0.6071    -1.5536 H       
  58 H58           -7.0473     0.2971     0.1984 H       
  59 H59           -9.2345     1.1217    -0.7622 H       
  60 H60           -8.5819     2.1764     0.5193 H       
  61 H61           -7.2934     4.5377    -2.2284 H       
  62 H62           -7.3011     4.4306    -0.4482 H       
  63 H63           -5.1107     3.7053    -1.2644 H       
  64 H64           -5.8729     2.5551    -2.3896 H       
  65 H65          -11.7035     5.3296    -2.7289 H       
  66 H66          -12.5826     4.5355    -4.0573 H       
  67 H67          -11.9161     3.5624    -2.7242 H       
  68 H68           -9.2862     5.3932    -5.5591 H       
  69 H69          -11.0468     5.6046    -5.7128 H       
  70 H70          -10.1677     6.3988    -4.3843 H       
  71 H71          -10.6787     2.1510    -4.3731 H       
  72 H72          -11.3452     3.1240    -5.7062 H       
  73 H73           -9.5845     2.9126    -5.5525 H       
@<TRIPOS>BOND
   1    1    2 ar
   2    1    6 ar
   3    2    3 ar
   4    2   15 1
   5    3    4 ar
   6    4    5 ar
   7    4    7 1
   8    5    6 ar
   9    5    9 1
  10    6   40 1
  11    7    8 1
  12    7   14 1
  13    8    9 ar
  14    8   10 ar
  15    9   13 ar
  16   10   11 ar
  17   10   41 1
  18   11   12 ar
  19   12   13 ar
  20   12   42 1
  21   13   43 1
  22   14   23 1
  23   14   27 1
  24   14   44 1
  25   15   16 1
  26   15   45 1
  27   16   17 ar
  28   16   21 ar
  29   17   18 ar
  30   18   19 ar
  31   18   46 1
  32   19   20 ar
  33   19   22 1
  34   20   21 ar
  35   20   47 1
  36   21   48 1
  37   22   28 1
  38   22   32 1
  39   23   24 1
  40   23   49 1
  41   23   50 1
  42   24   25 1
  43   24   51 1
  44   24   52 1
  45   25   26 1
  46   26   27 1
  47   26   53 1
  48   26   54 1
  49   27   55 1
  50   27   56 1
  51   28   29 1
  52   28   57 1
  53   28   58 1
  54   29   30 1
  55   29   59 1
  56   29   60 1
  57   30   31 1
  58   30   38 am
  59   31   32 1
  60   31   61 1
  61   31   62 1
  62   32   63 1
  63   32   64 1
  64   33   34 1
  65   33   38 1
  66   34   35 1
  67   34   36 1
  68   34   37 1
  69   35   65 1
  70   35   66 1
  71   35   67 1
  72   36   68 1
  73   36   69 1
  74   36   70 1
  75   37   71 1
  76   37   72 1
  77   37   73 1
  78   38   39 2

#	End of record

