#	Name: ASD01910976
#	Creating user name:	WinNT
#	Creation time:	15. 06. 2019 19:56

#	Modifying user name:	WinNT
#	Modification time:	15. 06. 2019 19:56

#	Program:	/corina/corina34_cracker 3.40 0067  02.08.2006

@<TRIPOS>MOLECULE
ASD01910976
  51   54    0    0    0
SMALL
NO_CHARGES


@<TRIPOS>ATOM
   1 N1            -4.7521    -3.3304     1.0068 N.3     
   2 C2            -3.5026    -2.6295     1.3316 C.3     
   3 C3            -2.6797    -2.4401     0.0529 C.3     
   4 N4            -3.5233    -1.7742    -0.9512 N.am    
   5 C5            -4.8509    -2.3418    -1.2315 C.3     
   6 C6            -5.5883    -2.5351     0.0978 C.3     
   7 C7            -3.0915    -0.6728    -1.5969 C.2     
   8 C8            -3.8996    -0.0921    -2.6876 C.ar    
   9 C9            -4.0112     1.2963    -2.8122 C.ar    
  10 C10           -4.7641     1.8438    -3.8283 C.ar    
  11 C11           -5.4176     1.0220    -4.7352 C.ar    
  12 C12           -5.3133    -0.3740    -4.6199 C.ar    
  13 C13           -4.5467    -0.9278    -3.5968 C.ar    
  14 C14           -5.9870    -1.2247    -5.5542 C.1     
  15 O15           -2.0365    -0.1575    -1.2813 O.2     
  16 C16           -6.5394    -1.9222    -6.3202 C.1     
  17 C17           -7.2131    -2.7729    -7.2545 C.ar    
  18 N18           -7.1094    -4.0935    -7.1387 N.ar    
  19 C19           -7.7141    -4.9090    -7.9782 C.ar    
  20 C20           -8.4829    -4.4177    -9.0171 C.ar    
  21 C21           -8.6189    -3.0447    -9.1758 C.ar    
  22 C22           -7.9797    -2.2093    -8.2784 C.ar    
  23 C23           -5.4478    -3.6638     2.1574 C.ar    
  24 N24           -6.6029    -4.3034     2.0514 N.ar    
  25 C25           -7.2930    -4.6374     3.1295 C.ar    
  26 C26           -6.7923    -4.3093     4.3816 C.ar    
  27 C27           -5.5792    -3.6391     4.4552 C.ar    
  28 N28           -4.9390    -3.3401     3.3367 N.ar    
  29 O29           -6.1575     1.5666    -5.7327 O.3     
  30 C30           -6.2200     2.9931    -5.7896 C.3     
  31 F31           -7.4708    -4.6345     5.5037 F       
  32 H32           -3.7334    -1.6556     1.7632 H       
  33 H33           -2.9306    -3.2190     2.0482 H       
  34 H34           -1.8079    -1.8218     0.2667 H       
  35 H35           -2.3597    -3.4116    -0.3239 H       
  36 H36           -5.4145    -1.6586    -1.8669 H       
  37 H37           -4.7396    -3.3039    -1.7318 H       
  38 H38           -6.5289    -3.0561    -0.0804 H       
  39 H39           -5.7901    -1.5625     0.5466 H       
  40 H40           -3.5057     1.9419    -2.1093 H       
  41 H41           -4.8461     2.9169    -3.9187 H       
  42 H42           -4.4623    -2.0003    -3.5024 H       
  43 H43           -7.6074    -5.9764    -7.8534 H       
  44 H44           -8.9734    -5.0960    -9.6996 H       
  45 H45           -9.2144    -2.6385    -9.9800 H       
  46 H46           -8.0645    -1.1368    -8.3724 H       
  47 H47           -8.2343    -5.1585     3.0365 H       
  48 H48           -5.1613    -3.3685     5.4135 H       
  49 H49           -6.8423     3.2962    -6.6317 H       
  50 H50           -6.6502     3.3751    -4.8638 H       
  51 H51           -5.2153     3.3960    -5.9168 H       
@<TRIPOS>BOND
   1    1    2 1
   2    1   23 1
   3    1    6 1
   4    2    3 1
   5    2   32 1
   6    2   33 1
   7    3    4 1
   8    3   34 1
   9    3   35 1
  10    4    5 1
  11    4    7 am
  12    5    6 1
  13    5   36 1
  14    5   37 1
  15    6   38 1
  16    6   39 1
  17    7    8 1
  18    7   15 2
  19    8    9 ar
  20    8   13 ar
  21    9   10 ar
  22    9   40 1
  23   10   11 ar
  24   10   41 1
  25   11   12 ar
  26   11   29 1
  27   12   13 ar
  28   12   14 1
  29   13   42 1
  30   14   16 3
  31   16   17 1
  32   17   18 ar
  33   17   22 ar
  34   18   19 ar
  35   19   20 ar
  36   19   43 1
  37   20   21 ar
  38   20   44 1
  39   21   22 ar
  40   21   45 1
  41   22   46 1
  42   23   24 ar
  43   23   28 ar
  44   24   25 ar
  45   25   26 ar
  46   25   47 1
  47   26   27 ar
  48   26   31 1
  49   27   28 ar
  50   27   48 1
  51   29   30 1
  52   30   49 1
  53   30   50 1
  54   30   51 1

#	End of record

