#	Name: ASD01150967
#	Creating user name:	WinNT
#	Creation time:	15. 06. 2019 19:05

#	Modifying user name:	WinNT
#	Modification time:	15. 06. 2019 19:05

#	Program:	/corina/corina34_cracker 3.40 0067  02.08.2006

@<TRIPOS>MOLECULE
ASD01150967
  28   28    0    0    0
SMALL
NO_CHARGES


@<TRIPOS>ATOM
   1 C1            -0.0155     1.2927     0.0091 C.2     
   2 N2             0.0021    -0.0041     0.0020 N.2     
   3 C3            -1.2845    -0.4579     0.0119 C.2     
   4 C4            -2.1017     0.6620     0.0257 C.2     
   5 O5            -1.2851     1.7307     0.0295 O.3     
   6 C6             1.2056     2.1758     0.0022 C.3     
   7 C7             1.1844     3.0658    -1.2421 C.3     
   8 C8             1.2082     3.0524     1.2562 C.3     
   9 N9            -3.4778     0.6771     0.0389 N.pl3   
  10 C10           -1.7179    -1.8556     0.0081 C.2     
  11 O11           -2.9043    -2.1246     0.0175 O.2     
  12 O12           -0.8018    -2.8459    -0.0060 O.3     
  13 C13           -1.2958    -4.1867    -0.0089 C.3     
  14 C14           -0.1187    -5.1640    -0.0252 C.3     
  15 H15            2.1022     1.5560    -0.0097 H       
  16 H16            1.1825     2.4413    -2.1355 H       
  17 H17            0.2878     3.6856    -1.2302 H       
  18 H18            2.0676     3.7045    -1.2471 H       
  19 H19            1.2234     2.4183     2.1427 H       
  20 H20            2.0915     3.6911     1.2512 H       
  21 H21            0.3117     3.6722     1.2681 H       
  22 H22           -3.9720    -0.1575     0.0391 H       
  23 H23           -3.9535     1.5224     0.0479 H       
  24 H24           -1.8954    -4.3550     0.8858 H       
  25 H25           -1.9118    -4.3450    -0.8941 H       
  26 H26            0.4808    -4.9957    -0.9199 H       
  27 H27            0.4973    -5.0056     0.8600 H       
  28 H28           -0.4956    -6.1867    -0.0275 H       
@<TRIPOS>BOND
   1    1    2 2
   2    1    6 1
   3    1    5 1
   4    2    3 1
   5    3    4 2
   6    3   10 1
   7    4    5 1
   8    4    9 1
   9    6    7 1
  10    6    8 1
  11    6   15 1
  12    7   16 1
  13    7   17 1
  14    7   18 1
  15    8   19 1
  16    8   20 1
  17    8   21 1
  18    9   22 1
  19    9   23 1
  20   10   11 2
  21   10   12 1
  22   12   13 1
  23   13   14 1
  24   13   24 1
  25   13   25 1
  26   14   26 1
  27   14   27 1
  28   14   28 1

#	End of record

