#	Name: ASD01914915
#	Creating user name:	WinNT
#	Creation time:	15. 06. 2019 20:04

#	Modifying user name:	WinNT
#	Modification time:	15. 06. 2019 20:04

#	Program:	/corina/corina34_cracker 3.40 0067  02.08.2006

@<TRIPOS>MOLECULE
ASD01914915
  53   57    0    0    0
SMALL
NO_CHARGES


@<TRIPOS>ATOM
   1 C1             0.0015     1.3379    -0.0252 C.2     
   2 N2             0.0083     0.0658     0.3141 N.2     
   3 C3             1.3170     1.7177    -0.3405 C.2     
   4 C4             2.1164     0.6244    -0.1780 C.2     
   5 N5             1.3233    -0.4084     0.2272 N.pl3   
   6 C6            -1.1925     2.2186    -0.0725 C.ar    
   7 C7            -2.4473     1.7135     0.2609 C.ar    
   8 C8            -3.5542     2.5368     0.2152 C.ar    
   9 C9            -3.4193     3.8609    -0.1613 C.ar    
  10 C10           -2.1758     4.3675    -0.4934 C.ar    
  11 C11           -1.0614     3.5546    -0.4451 C.ar    
  12 C12            3.5784     0.5691    -0.4008 C.ar    
  13 C13            4.3462    -0.4111     0.2284 C.ar    
  14 C14            5.7088    -0.4573     0.0166 C.ar    
  15 C15            6.3139     0.4657    -0.8176 C.ar    
  16 C16            5.5580     1.4404    -1.4441 C.ar    
  17 C17            4.1936     1.4933    -1.2453 C.ar    
  18 C18            1.7684    -1.7730     0.5204 C.3     
  19 C19            2.0418    -1.9060     1.9964 C.2     
  20 N20            2.4653    -3.0822     2.5000 N.am    
  21 O21            1.8807    -0.9546     2.7311 O.2     
  22 C22            2.6700    -4.2517     1.6386 C.3     
  23 C23            2.0862    -5.4762     2.2977 C.ar    
  24 C24            1.6716    -5.4791     3.6101 C.ar    
  25 C25            1.7458    -4.2619     4.4938 C.3     
  26 C26            2.7472    -3.2436     3.9361 C.3     
  27 C27            1.9737    -6.6308     1.5346 C.ar    
  28 C28            1.4544    -7.7857     2.0822 C.ar    
  29 C29            1.0440    -7.7947     3.4021 C.ar    
  30 C30            1.1528    -6.6467     4.1625 C.ar    
  31 F31            0.7523    -6.6572     5.4528 F       
  32 H32            1.6378     2.6996    -0.6557 H       
  33 H33           -2.5538     0.6796     0.5544 H       
  34 H34           -4.5274     2.1463     0.4735 H       
  35 H35           -4.2882     4.5014    -0.1965 H       
  36 H36           -2.0761     5.4021    -0.7867 H       
  37 H37           -0.0908     3.9512    -0.7043 H       
  38 H38            3.8750    -1.1319     0.8801 H       
  39 H39            6.3044    -1.2155     0.5034 H       
  40 H40            7.3808     0.4253    -0.9802 H       
  41 H41            6.0362     2.1586    -2.0936 H       
  42 H42            3.6045     2.2545    -1.7352 H       
  43 H43            0.9906    -2.4792     0.2298 H       
  44 H44            2.6797    -1.9859    -0.0386 H       
  45 H45            2.1784    -4.0866     0.6799 H       
  46 H46            3.7376    -4.4009     1.4771 H       
  47 H47            0.7594    -3.8018     4.5538 H       
  48 H48            2.0615    -4.5628     5.4927 H       
  49 H49            3.7638    -3.6098     4.0789 H       
  50 H50            2.6238    -2.2879     4.4456 H       
  51 H51            2.2951    -6.6245     0.5036 H       
  52 H52            1.3685    -8.6793     1.4817 H       
  53 H53            0.6398    -8.6967     3.8375 H       
@<TRIPOS>BOND
   1    1    2 2
   2    1    3 1
   3    1    6 1
   4    2    5 1
   5    3    4 2
   6    3   32 1
   7    4    5 1
   8    4   12 1
   9    5   18 1
  10    6    7 ar
  11    6   11 ar
  12    7    8 ar
  13    7   33 1
  14    8    9 ar
  15    8   34 1
  16    9   10 ar
  17    9   35 1
  18   10   11 ar
  19   10   36 1
  20   11   37 1
  21   12   13 ar
  22   12   17 ar
  23   13   14 ar
  24   13   38 1
  25   14   15 ar
  26   14   39 1
  27   15   16 ar
  28   15   40 1
  29   16   17 ar
  30   16   41 1
  31   17   42 1
  32   18   19 1
  33   18   43 1
  34   18   44 1
  35   19   20 am
  36   19   21 2
  37   20   22 1
  38   20   26 1
  39   22   23 1
  40   22   45 1
  41   22   46 1
  42   23   24 ar
  43   23   27 ar
  44   24   25 1
  45   24   30 ar
  46   25   26 1
  47   25   47 1
  48   25   48 1
  49   26   49 1
  50   26   50 1
  51   27   28 ar
  52   27   51 1
  53   28   29 ar
  54   28   52 1
  55   29   30 ar
  56   29   53 1
  57   30   31 1

#	End of record

