#	Name: ASD03092080
#	Creating user name:	WinNT
#	Creation time:	15. 06. 2019 20:31

#	Modifying user name:	WinNT
#	Modification time:	15. 06. 2019 20:31

#	Program:	/corina/corina34_cracker 3.40 0067  02.08.2006

@<TRIPOS>MOLECULE
ASD03092080
  47   49    0    0    0
SMALL
NO_CHARGES


@<TRIPOS>ATOM
   1 N1            -0.3269     1.0023     0.2116 N.am    
   2 C2            -0.4608    -0.3579     0.0903 C.2     
   3 C3            -1.7923    -0.6273    -0.0176 C.2     
   4 C4            -2.4842     0.5942     0.0392 C.2     
   5 N5            -1.6103     1.5626     0.1812 N.2     
   6 N6            -3.8698     0.7509    -0.0373 N.pl3   
   7 C7            -4.4415     2.0152     0.1390 C.ar    
   8 C8            -5.8237     2.1517     0.2069 C.ar    
   9 C9            -6.3849     3.4045     0.3818 C.ar    
  10 C10           -5.5713     4.5190     0.4890 C.ar    
  11 C11           -3.6298     3.1363     0.2524 C.ar    
  12 C12            0.6370    -1.3485     0.0783 C.ar    
  13 C13            0.8319     1.6780     0.3425 C.2     
  14 C14            0.4917    -2.5909     0.7060 C.ar    
  15 C15            1.5414    -3.4852     0.6699 C.ar    
  16 N16            2.6689    -3.1820     0.0556 N.ar    
  17 C17            2.8476    -2.0224    -0.5484 C.ar    
  18 C18            1.8486    -1.0719    -0.5663 C.ar    
  19 C19            4.1590    -1.7353    -1.2329 C.3     
  20 C20            0.8307     3.1849     0.3331 C.3     
  21 C21           -4.1968     4.3845     0.4216 C.ar    
  22 Cl22          -8.1101     3.5784     0.4664 Cl      
  23 O23            1.8750     1.0735     0.4676 O.2     
  24 F24           -6.6172     1.0634     0.1017 F       
  25 N25            2.2060     3.6767     0.4903 N.3     
  26 C26            2.2437     5.1452     0.4858 C.3     
  27 O27            4.1186    -0.4292    -1.8112 O.3     
  28 C28            5.3202    -0.0560    -2.4886 C.3     
  29 H29           -2.2365    -1.6056    -0.1277 H       
  30 H30           -4.4358    -0.0171    -0.2127 H       
  31 H31           -6.0110     5.4959     0.6252 H       
  32 H32           -2.5558     3.0327     0.2045 H       
  33 H33           -0.4283    -2.8455     1.2113 H       
  34 H34            1.4389    -4.4465     1.1513 H       
  35 H35            2.0018    -0.1249    -1.0625 H       
  36 H36            4.9679    -1.7851    -0.5040 H       
  37 H37            4.3296    -2.4742    -2.0159 H       
  38 H38            0.4230     3.5421    -0.6126 H       
  39 H39            0.2171     3.5529     1.1554 H       
  40 H40           -3.5652     5.2565     0.5053 H       
  41 H41            2.6287     3.3067     1.3285 H       
  42 H42            3.2735     5.4826     0.6036 H       
  43 H43            1.8458     5.5160    -0.4589 H       
  44 H44            1.6399     5.5267     1.3091 H       
  45 H45            5.5148    -0.7600    -3.2977 H       
  46 H46            5.2091     0.9476    -2.8992 H       
  47 H47            6.1532    -0.0709    -1.7858 H       
@<TRIPOS>BOND
   1    1    2 1
   2    1   13 am
   3    1    5 1
   4    2    3 2
   5    2   12 1
   6    3    4 1
   7    3   29 1
   8    4    5 2
   9    4    6 1
  10    6    7 1
  11    6   30 1
  12    7    8 ar
  13    7   11 ar
  14    8    9 ar
  15    8   24 1
  16    9   10 ar
  17    9   22 1
  18   10   21 ar
  19   10   31 1
  20   11   21 ar
  21   11   32 1
  22   12   14 ar
  23   12   18 ar
  24   13   20 1
  25   13   23 2
  26   14   15 ar
  27   14   33 1
  28   15   16 ar
  29   15   34 1
  30   16   17 ar
  31   17   18 ar
  32   17   19 1
  33   18   35 1
  34   19   27 1
  35   19   36 1
  36   19   37 1
  37   20   25 1
  38   20   38 1
  39   20   39 1
  40   21   40 1
  41   25   26 1
  42   25   41 1
  43   26   42 1
  44   26   43 1
  45   26   44 1
  46   27   28 1
  47   28   45 1
  48   28   46 1
  49   28   47 1

#	End of record

