#	Name: ASD01816586
#	Creating user name:	WinNT
#	Creation time:	15. 06. 2019 19:35

#	Modifying user name:	WinNT
#	Modification time:	15. 06. 2019 19:35

#	Program:	/corina/corina34_cracker 3.40 0067  02.08.2006

@<TRIPOS>MOLECULE
ASD01816586
  57   62    0    0    0
SMALL
NO_CHARGES


@<TRIPOS>ATOM
   1 C1            -0.0167     1.3813     0.0096 C.ar    
   2 C2             0.0021    -0.0041     0.0020 C.ar    
   3 C3             1.1984    -0.6909    -0.0131 C.ar    
   4 C4             2.4015     0.0059    -0.0203 C.ar    
   5 C5             2.3790     1.4106    -0.0126 C.ar    
   6 C6             1.1663     2.0916     0.0022 C.ar    
   7 N7             3.6053    -0.6772    -0.0345 N.pl3   
   8 C8             4.7970    -0.0586    -0.0420 C.2     
   9 C9             4.9000     1.3103    -0.0356 C.2     
  10 C10            3.6670     2.1302    -0.0205 C.2     
  11 C11            5.9971     2.2729    -0.0405 C.2     
  12 N12            5.4246     3.4960    -0.0291 N.am    
  13 N13            4.0323     3.3799    -0.0174 N.2     
  14 C14            6.1260     4.7074    -0.0284 C.ar    
  15 O15            7.1914     2.0229    -0.0520 O.2     
  16 C16            3.5779    -2.1419    -0.0411 C.3     
  17 C17            3.5555    -2.6375    -1.4641 C.ar    
  18 C18            4.7434    -2.8868    -2.1267 C.ar    
  19 C19            4.7261    -3.3406    -3.4310 C.ar    
  20 C20            3.5145    -3.5470    -4.0768 C.ar    
  21 C21            2.3235    -3.2962    -3.4087 C.ar    
  22 C22            2.3471    -2.8475    -2.1027 C.ar    
  23 C23            5.8904     5.6476     0.9668 C.ar    
  24 N24            3.4937    -4.0071    -5.4008 N.pl3   
  25 C25            7.0630     4.9695    -1.0193 C.ar    
  26 C26            7.7538     6.1656    -1.0154 C.ar    
  27 C27            7.5135     7.1013    -0.0262 C.ar    
  28 C28            6.5843     6.8413     0.9649 C.ar    
  29 C29            2.3889    -4.2483    -6.1422 C.2     
  30 C30            2.7955    -4.6777    -7.3593 C.2     
  31 C31            4.1946    -4.7001    -7.3630 C.2     
  32 N32            4.6139    -4.2927    -6.1920 N.2     
  33 C33            1.1444     3.5985     0.0109 C.3     
  34 C34            4.8782     5.3652     2.0469 C.3     
  35 H35           -0.9602     1.9068     0.0169 H       
  36 H36           -0.9288    -0.5516     0.0083 H       
  37 H37            1.2004    -1.7709    -0.0189 H       
  38 H38            5.6983    -0.6536    -0.0531 H       
  39 H39            4.4656    -2.5242     0.4629 H       
  40 H40            2.6860    -2.4910     0.4793 H       
  41 H41            5.6856    -2.7261    -1.6238 H       
  42 H42            5.6542    -3.5345    -3.9483 H       
  43 H43            1.3795    -3.4555    -3.9086 H       
  44 H44            1.4210    -2.6522    -1.5825 H       
  45 H45            7.2517     4.2388    -1.7918 H       
  46 H46            8.4827     6.3700    -1.7857 H       
  47 H47            8.0554     8.0354    -0.0250 H       
  48 H48            6.3987     7.5744     1.7359 H       
  49 H49            1.3657    -4.1216    -5.8206 H       
  50 H50            2.1536    -4.9544    -8.1826 H       
  51 H51            4.8207    -4.9978    -8.1911 H       
  52 H52            1.1300     3.9676    -1.0146 H       
  53 H53            0.2539     3.9459     0.5347 H       
  54 H54            2.0336     3.9718     0.5190 H       
  55 H55            5.3693     4.8702     2.8847 H       
  56 H56            4.4378     6.3027     2.3863 H       
  57 H57            4.0952     4.7183     1.6511 H       
@<TRIPOS>BOND
   1    1    2 ar
   2    1    6 ar
   3    1   35 1
   4    2    3 ar
   5    2   36 1
   6    3    4 ar
   7    3   37 1
   8    4    5 ar
   9    4    7 1
  10    5    6 ar
  11    5   10 1
  12    6   33 1
  13    7    8 1
  14    7   16 1
  15    8    9 2
  16    8   38 1
  17    9   10 1
  18    9   11 1
  19   10   13 2
  20   11   12 am
  21   11   15 2
  22   12   13 1
  23   12   14 1
  24   14   25 ar
  25   14   23 ar
  26   16   17 1
  27   16   39 1
  28   16   40 1
  29   17   18 ar
  30   17   22 ar
  31   18   19 ar
  32   18   41 1
  33   19   20 ar
  34   19   42 1
  35   20   21 ar
  36   20   24 1
  37   21   22 ar
  38   21   43 1
  39   22   44 1
  40   23   34 1
  41   23   28 ar
  42   24   29 1
  43   24   32 1
  44   25   26 ar
  45   25   45 1
  46   26   27 ar
  47   26   46 1
  48   27   28 ar
  49   27   47 1
  50   28   48 1
  51   29   30 2
  52   29   49 1
  53   30   31 1
  54   30   50 1
  55   31   32 2
  56   31   51 1
  57   33   52 1
  58   33   53 1
  59   33   54 1
  60   34   55 1
  61   34   56 1
  62   34   57 1

#	End of record

