#	Name: ASD01882831
#	Creating user name:	WinNT
#	Creation time:	15. 06. 2019 19:45

#	Modifying user name:	WinNT
#	Modification time:	15. 06. 2019 19:45

#	Program:	/corina/corina34_cracker 3.40 0067  02.08.2006

@<TRIPOS>MOLECULE
ASD01882831
  48   51    0    0    0
SMALL
NO_CHARGES


@<TRIPOS>ATOM
   1 C1            -0.0489     1.3976     0.0128 C.ar    
   2 C2            -0.0340     0.0019    -0.0046 C.ar    
   3 C3             1.1566    -0.6896    -0.0646 C.ar    
   4 C4             2.3575    -0.0017    -0.1076 C.ar    
   5 C5             2.3635     1.3737    -0.0925 C.ar    
   6 C6             1.1577     2.0938    -0.0346 C.ar    
   7 C7             1.1515    -2.1965    -0.0828 C.3     
   8 C8             3.6583    -0.7600    -0.1705 C.3     
   9 N9            -1.2914     2.0138     0.0834 N.am    
  10 N10            1.2505     3.4485    -0.0334 N.2     
  11 C11           -1.5728     3.0852     0.8261 C.2     
  12 C12            0.5635     4.2566     0.6884 C.2     
  13 C13           -0.4975     3.7651     1.6354 C.3     
  14 O14           -2.7057     3.5175     0.8505 O.2     
  15 C15            0.8216     5.7032     0.5890 C.ar    
  16 C16            2.1378     7.5290    -0.2646 C.ar    
  17 C17            1.8965     6.1734    -0.1718 C.ar    
  18 C18           -0.0098     6.6100     1.2494 C.ar    
  19 C19            0.2413     7.9738     1.1495 C.ar    
  20 C20            1.3202     8.4289     0.3914 C.ar    
  21 C21           -0.6377     8.9440     1.8479 C.ar    
  22 C22           -0.4055    10.3192     1.7549 C.ar    
  23 C23           -1.7237     8.5081     2.6116 C.ar    
  24 C24           -2.5160     9.4442     3.2443 C.ar    
  25 N25           -2.2592    10.7335     3.1350 N.ar    
  26 C26           -1.2473    11.1867     2.4198 C.ar    
  27 C27           -1.0081    12.6717     2.3279 C.3     
  28 F28           -0.1679    -2.6590    -0.0315 F       
  29 F29            1.7594    -2.6507    -1.2581 F       
  30 F30            1.8581    -2.6787     1.0241 F       
  31 H31           -0.9662    -0.5423     0.0297 H       
  32 H32            3.3031     1.9051    -0.1257 H       
  33 H33            3.9287    -0.9317    -1.2124 H       
  34 H34            4.4413    -0.1794     0.3172 H       
  35 H35            3.5456    -1.7174     0.3382 H       
  36 H36           -2.0095     1.6363    -0.4483 H       
  37 H37           -0.9239     4.6081     2.1790 H       
  38 H38           -0.0623     3.0552     2.3388 H       
  39 H39            2.9694     7.8880    -0.8527 H       
  40 H40            2.5390     5.4747    -0.6872 H       
  41 H41           -0.8443     6.2536     1.8351 H       
  42 H42            1.5152     9.4883     0.3146 H       
  43 H43            0.4211    10.6972     1.1716 H       
  44 H44           -1.9400     7.4541     2.7051 H       
  45 H45           -3.3578     9.1170     3.8365 H       
  46 H46           -1.5567    13.0762     1.4773 H       
  47 H47           -1.3517    13.1525     3.2438 H       
  48 H48            0.0573    12.8606     2.1961 H       
@<TRIPOS>BOND
   1    1    2 ar
   2    1    6 ar
   3    1    9 1
   4    2    3 ar
   5    2   31 1
   6    3    4 ar
   7    3    7 1
   8    4    5 ar
   9    4    8 1
  10    5    6 ar
  11    5   32 1
  12    6   10 1
  13    7   28 1
  14    7   29 1
  15    7   30 1
  16    8   33 1
  17    8   34 1
  18    8   35 1
  19    9   11 am
  20    9   36 1
  21   10   12 2
  22   11   13 1
  23   11   14 2
  24   12   15 1
  25   12   13 1
  26   13   37 1
  27   13   38 1
  28   15   18 ar
  29   15   17 ar
  30   16   17 ar
  31   16   20 ar
  32   16   39 1
  33   17   40 1
  34   18   19 ar
  35   18   41 1
  36   19   20 ar
  37   19   21 1
  38   20   42 1
  39   21   23 ar
  40   21   22 ar
  41   22   26 ar
  42   22   43 1
  43   23   24 ar
  44   23   44 1
  45   24   25 ar
  46   24   45 1
  47   25   26 ar
  48   26   27 1
  49   27   46 1
  50   27   47 1
  51   27   48 1

#	End of record

