#	Name: ASD05430578
#	Creating user name:	WinNT
#	Creation time:	15. 06. 2019 21:00

#	Modifying user name:	WinNT
#	Modification time:	15. 06. 2019 21:00

#	Program:	/corina/corina34_cracker 3.40 0067  02.08.2006

@<TRIPOS>MOLECULE
ASD05430578
  33   34    0    0    0
SMALL
NO_CHARGES


@<TRIPOS>ATOM
   1 C1            -0.0168     1.3850     0.0097 C.ar    
   2 C2             0.0021    -0.0041     0.0020 C.ar    
   3 C3             1.1482     2.0964     0.0024 C.ar    
   4 C4             2.3723     1.4191    -0.0129 C.ar    
   5 C5             2.3893     0.0107    -0.0206 C.ar    
   6 C6             1.1848    -0.6879    -0.0129 C.ar    
   7 C7             1.1159     3.6030     0.0102 C.3     
   8 C8             1.1858    -2.1949    -0.0205 C.3     
   9 C9             0.4766    -2.7117     1.2328 C.3     
  10 C10            0.4533    -2.6991    -1.2655 C.3     
  11 C11            0.3723     4.1037    -1.2296 C.3     
  12 C12            0.3956     4.0912     1.2687 C.3     
  13 C13            3.7677     1.8460    -0.0248 C.2     
  14 N14            4.5108     0.7765    -0.0380 N.2     
  15 N15            3.7063    -0.3677    -0.0360 N.pl3   
  16 H16           -0.9622     1.9070     0.0169 H       
  17 H17           -0.9297    -0.5501     0.0083 H       
  18 H18            2.1356     3.9883     0.0026 H       
  19 H19            2.2137    -2.5575    -0.0319 H       
  20 H20           -0.5513    -2.3491     1.2442 H       
  21 H21            0.4773    -3.8016     1.2274 H       
  22 H22            0.9984    -2.3524     2.1198 H       
  23 H23           -0.5746    -2.3365    -1.2541 H       
  24 H24            0.9586    -2.3310    -2.1584 H       
  25 H25            0.4540    -3.7891    -1.2710 H       
  26 H26           -0.6473     3.7184    -1.2220 H       
  27 H27            0.3490     5.1935    -1.2239 H       
  28 H28            0.8855     3.7560    -2.1262 H       
  29 H29            0.9254     3.7345     2.1520 H       
  30 H30            0.3723     5.1809     1.2744 H       
  31 H31           -0.6240     3.7059     1.2763 H       
  32 H32            4.1211     2.8665    -0.0229 H       
  33 H33            4.0289    -1.2825    -0.0435 H       
@<TRIPOS>BOND
   1    1    2 ar
   2    1    3 ar
   3    1   16 1
   4    2    6 ar
   5    2   17 1
   6    3    4 ar
   7    3    7 1
   8    4    5 ar
   9    4   13 1
  10    5    6 ar
  11    5   15 1
  12    6    8 1
  13    7   11 1
  14    7   12 1
  15    7   18 1
  16    8    9 1
  17    8   10 1
  18    8   19 1
  19    9   20 1
  20    9   21 1
  21    9   22 1
  22   10   23 1
  23   10   24 1
  24   10   25 1
  25   11   26 1
  26   11   27 1
  27   11   28 1
  28   12   29 1
  29   12   30 1
  30   12   31 1
  31   13   14 2
  32   13   32 1
  33   14   15 1
  34   15   33 1

#	End of record

