#	Name: ASD01151105
#	Creating user name:	WinNT
#	Creation time:	15. 06. 2019 19:05

#	Modifying user name:	WinNT
#	Modification time:	15. 06. 2019 19:05

#	Program:	/corina/corina34_cracker 3.40 0067  02.08.2006

@<TRIPOS>MOLECULE
ASD01151105
  58   61    0    0    0
SMALL
NO_CHARGES


@<TRIPOS>ATOM
   1 C1             0.0366    -0.5336     0.4306 C.3     
   2 C2             0.1165    -1.5704    -0.6917 C.3     
   3 C3             0.6393    -0.9037    -1.9657 C.3     
   4 C4             2.0575    -0.4436    -1.7462 C.2     
   5 C5             3.0118    -1.1061    -0.9867 C.2     
   6 C6             4.1812    -0.3600    -1.0366 C.2     
   7 N7             5.3930    -0.5361    -0.4907 N.2     
   8 C8             6.3590     0.3335    -0.6913 C.2     
   9 C9             7.7112     0.1086    -0.0650 C.3     
  10 C10            6.1395     1.4624    -1.4806 C.2     
  11 C11            4.9082     1.6575    -2.0454 C.2     
  12 N12            4.6653     2.7645    -2.8299 N.pl3   
  13 C13            3.7465     3.8171    -2.3754 C.3     
  14 C14            4.4709     5.1654    -2.4396 C.3     
  15 C15            5.0208     5.3779    -3.8519 C.3     
  16 C16            6.0270     4.2728    -4.1810 C.3     
  17 C17            5.3249     2.9173    -4.1339 C.3     
  18 C18            6.3551     1.8017    -4.3214 C.3     
  19 C19            6.9286     1.8699    -5.7382 C.3     
  20 O20            7.9562     0.8877    -5.8839 O.3     
  21 N21            3.9213     0.7352    -1.8192 N.pl3   
  22 N22            2.5922     0.6461    -2.2473 N.2     
  23 C23            0.6023    -1.8930    -3.1019 C.ar    
  24 C24            1.3812    -3.0339    -3.0503 C.ar    
  25 C25            1.3477    -3.9416    -4.0921 C.ar    
  26 C26            0.5344    -3.7082    -5.1867 C.ar    
  27 Cl27           0.4913    -4.8481    -6.4953 Cl      
  28 C28           -0.2449    -2.5661    -5.2378 C.ar    
  29 C29           -0.2148    -1.6620    -4.1928 C.ar    
  30 H30            1.0288    -0.1223     0.6166 H       
  31 H31           -0.6400     0.2687     0.1365 H       
  32 H32           -0.3358    -1.0086     1.3382 H       
  33 H33            0.7932    -2.3728    -0.3976 H       
  34 H34           -0.8756    -1.9817    -0.8777 H       
  35 H35            0.0128    -0.0459    -2.2102 H       
  36 H36            2.8700    -2.0343    -0.4529 H       
  37 H37            7.6708    -0.7677     0.5820 H       
  38 H38            8.4522    -0.0518    -0.8482 H       
  39 H39            7.9886     0.9828     0.5241 H       
  40 H40            6.9336     2.1760    -1.6442 H       
  41 H41            2.8702     3.8419    -3.0232 H       
  42 H42            3.4393     3.6159    -1.3492 H       
  43 H43            3.7719     5.9659    -2.1971 H       
  44 H44            5.2934     5.1709    -1.7244 H       
  45 H45            4.2006     5.3476    -4.5693 H       
  46 H46            5.5155     6.3476    -3.9070 H       
  47 H47            6.4356     4.4379    -5.1780 H       
  48 H48            6.8349     4.2866    -3.4494 H       
  49 H49            4.5802     2.8671    -4.9282 H       
  50 H50            7.1603     1.9251    -3.5972 H       
  51 H51            5.8752     0.8348    -4.1699 H       
  52 H52            6.1358     1.6762    -6.4608 H       
  53 H53            7.3460     2.8614    -5.9139 H       
  54 H54            8.4175     0.9241    -6.7331 H       
  55 H55            2.0163    -3.2158    -2.1959 H       
  56 H56            1.9565    -4.8327    -4.0518 H       
  57 H57           -0.8798    -2.3832    -6.0921 H       
  58 H58           -0.8267    -0.7728    -4.2304 H       
@<TRIPOS>BOND
   1    1    2 1
   2    1   30 1
   3    1   31 1
   4    1   32 1
   5    2    3 1
   6    2   33 1
   7    2   34 1
   8    3    4 1
   9    3   23 1
  10    3   35 1
  11    4   22 2
  12    4    5 1
  13    5    6 2
  14    5   36 1
  15    6   21 1
  16    6    7 1
  17    7    8 2
  18    8    9 1
  19    8   10 1
  20    9   37 1
  21    9   38 1
  22    9   39 1
  23   10   11 2
  24   10   40 1
  25   11   12 1
  26   11   21 1
  27   12   17 1
  28   12   13 1
  29   13   14 1
  30   13   41 1
  31   13   42 1
  32   14   15 1
  33   14   43 1
  34   14   44 1
  35   15   16 1
  36   15   45 1
  37   15   46 1
  38   16   17 1
  39   16   47 1
  40   16   48 1
  41   17   18 1
  42   17   49 1
  43   18   19 1
  44   18   50 1
  45   18   51 1
  46   19   20 1
  47   19   52 1
  48   19   53 1
  49   20   54 1
  50   21   22 1
  51   23   29 ar
  52   23   24 ar
  53   24   25 ar
  54   24   55 1
  55   25   26 ar
  56   25   56 1
  57   26   27 1
  58   26   28 ar
  59   28   29 ar
  60   28   57 1
  61   29   58 1

#	End of record

