#	Name: ASD01811422
#	Creating user name:	WinNT
#	Creation time:	15. 06. 2019 19:26

#	Modifying user name:	WinNT
#	Modification time:	15. 06. 2019 19:26

#	Program:	/corina/corina34_cracker 3.40 0067  02.08.2006

@<TRIPOS>MOLECULE
ASD01811422
  68   72    0    0    0
SMALL
NO_CHARGES


@<TRIPOS>ATOM
   1 C1            -0.1310     1.6684    -1.1761 C.2     
   2 C2            -0.0909     0.2185    -1.4449 C.ar    
   3 C3             0.9517    -0.3363    -2.2032 C.ar    
   4 C4             0.9491    -1.6864    -2.4273 C.ar    
   5 C5            -0.0802    -2.4651    -1.9006 C.ar    
   6 N6            -1.0540    -1.9157    -1.1877 N.ar    
   7 C7            -1.0861    -0.6221    -0.9438 C.ar    
   8 O8             0.7433     2.3921    -1.6126 O.2     
   9 N9            -1.1397     2.1918    -0.4515 N.am    
  10 N10           -0.0861    -3.8313    -2.1254 N.pl3   
  11 C11            0.9845    -4.4489    -2.9120 C.3     
  12 C12            1.1239    -5.9204    -2.5168 C.3     
  13 C13            0.6452    -4.3506    -4.4007 C.3     
  14 C14           -2.3254     4.2496     0.0169 C.ar    
  15 C15           -1.1313     3.5512    -0.1205 C.ar    
  16 C16            0.0711     4.2205     0.0754 C.ar    
  17 C17            0.0258     5.5795     0.4053 C.ar    
  18 C18           -1.2159     6.2050     0.5236 C.ar    
  19 N19           -2.3302     5.5308     0.3284 N.ar    
  20 C20           -3.6334     3.5333    -0.2000 C.3     
  21 C21            1.2741     6.3408     0.6254 C.2     
  22 O22            1.4166     7.4350     0.1155 O.2     
  23 C23            3.6568     5.2155     3.7641 C.3     
  24 O24            4.7485     4.4843     3.1837 O.3     
  25 C25            5.8508     4.6855     4.0880 C.3     
  26 C26            5.2359     4.9055     5.4510 C.ar    
  27 C27            5.7513     4.8411     6.7261 C.ar    
  28 C28            4.9260     5.1000     7.8228 C.ar    
  29 C29            3.5828     5.4224     7.6173 C.ar    
  30 C30            3.0789     5.4841     6.3343 C.ar    
  31 C31            3.9000     5.2277     5.2532 C.ar    
  32 N32            2.2539     5.8216     1.3915 N.am    
  33 C33            3.4565     6.6068     1.7012 C.3     
  34 C34            3.6424     6.6435     3.2219 C.3     
  35 C35            2.3364     4.5148     3.4509 C.3     
  36 C36            2.1383     4.4604     1.9323 C.3     
  37 C37            5.4546     5.0345     9.1520 C.1     
  38 N38            5.8740     4.9826    10.2065 N.1     
  39 H39            1.7381     0.2880    -2.6011 H       
  40 H40            1.7369    -2.1442    -3.0072 H       
  41 H41           -1.8912    -0.2077    -0.3552 H       
  42 H42           -1.8715     1.6260    -0.1593 H       
  43 H43           -0.7991    -4.3796    -1.7621 H       
  44 H44            1.9233    -3.9301    -2.7183 H       
  45 H45            0.1851    -6.4392    -2.7106 H       
  46 H46            1.9204    -6.3798    -3.1021 H       
  47 H47            1.3656    -5.9904    -1.4563 H       
  48 H48            0.5459    -3.3023    -4.6823 H       
  49 H49            1.4417    -4.8100    -4.9860 H       
  50 H50           -0.2936    -4.8694    -4.5945 H       
  51 H51            1.0150     3.7053    -0.0239 H       
  52 H52           -1.2637     7.2535     0.7777 H       
  53 H53           -3.9787     3.1134     0.7448 H       
  54 H54           -4.3750     4.2375    -0.5772 H       
  55 H55           -3.4927     2.7311    -0.9243 H       
  56 H56            6.4904     3.8029     4.1027 H       
  57 H57            6.4261     5.5619     3.7897 H       
  58 H58            6.7909     4.5909     6.8779 H       
  59 H59            2.9394     5.6228     8.4612 H       
  60 H60            2.0402     5.7330     6.1748 H       
  61 H61            4.3263     6.1413     1.2378 H       
  62 H62            3.3376     7.6221     1.3229 H       
  63 H63            2.8200     7.1966     3.6757 H       
  64 H64            4.5864     7.1331     3.4612 H       
  65 H65            2.3586     3.5013     3.8514 H       
  66 H66            1.5144     5.0679     3.9054 H       
  67 H67            1.1498     4.0603     1.7068 H       
  68 H68            2.9028     3.8240     1.4866 H       
@<TRIPOS>BOND
   1    1    2 1
   2    1    8 2
   3    1    9 am
   4    2    3 ar
   5    2    7 ar
   6    3    4 ar
   7    3   39 1
   8    4    5 ar
   9    4   40 1
  10    5    6 ar
  11    5   10 1
  12    6    7 ar
  13    7   41 1
  14    9   15 1
  15    9   42 1
  16   10   11 1
  17   10   43 1
  18   11   12 1
  19   11   13 1
  20   11   44 1
  21   12   45 1
  22   12   46 1
  23   12   47 1
  24   13   48 1
  25   13   49 1
  26   13   50 1
  27   14   15 ar
  28   14   19 ar
  29   14   20 1
  30   15   16 ar
  31   16   17 ar
  32   16   51 1
  33   17   18 ar
  34   17   21 1
  35   18   19 ar
  36   18   52 1
  37   20   53 1
  38   20   54 1
  39   20   55 1
  40   21   22 2
  41   21   32 am
  42   23   24 1
  43   23   31 1
  44   23   34 1
  45   23   35 1
  46   24   25 1
  47   25   26 1
  48   25   56 1
  49   25   57 1
  50   26   27 ar
  51   26   31 ar
  52   27   28 ar
  53   27   58 1
  54   28   29 ar
  55   28   37 1
  56   29   30 ar
  57   29   59 1
  58   30   31 ar
  59   30   60 1
  60   32   33 1
  61   32   36 1
  62   33   34 1
  63   33   61 1
  64   33   62 1
  65   34   63 1
  66   34   64 1
  67   35   36 1
  68   35   65 1
  69   35   66 1
  70   36   67 1
  71   36   68 1
  72   37   38 3

#	End of record

