#	Name: ASD01812870
#	Creating user name:	WinNT
#	Creation time:	15. 06. 2019 19:29

#	Modifying user name:	WinNT
#	Modification time:	15. 06. 2019 19:29

#	Program:	/corina/corina34_cracker 3.40 0067  02.08.2006

@<TRIPOS>MOLECULE
ASD01812870
  57   61    0    0    0
SMALL
NO_CHARGES


@<TRIPOS>ATOM
   1 N1             0.0027     1.3184    -0.2224 N.ar    
   2 C2             0.0319     0.0058    -0.3460 C.ar    
   3 C3             1.2340    -0.6843    -0.3682 C.ar    
   4 C4             2.4113     0.0205    -0.2593 C.ar    
   5 C5             2.3614     1.4132    -0.1292 C.ar    
   6 C6             1.1073     2.0395    -0.1145 C.ar    
   7 C7             3.8682    -0.3581    -0.2428 C.3     
   8 N8             4.6151     0.8975    -0.0972 N.am    
   9 C9             3.7395     1.9163    -0.0322 C.2     
  10 C10            6.0736     1.0204    -0.0337 C.3     
  11 C11            6.6239     1.1966    -1.4255 C.ar    
  12 C12            6.7706     2.4669    -1.9529 C.ar    
  13 C13            7.2746     2.6339    -3.2269 C.ar    
  14 C14            7.6358     1.5203    -3.9819 C.ar    
  15 C15            7.4860     0.2433    -3.4460 C.ar    
  16 C16            6.9859     0.0878    -2.1689 C.ar    
  17 O17            1.0259     3.3855     0.0100 O.3     
  18 O18            4.0442     3.0870     0.0899 O.2     
  19 C19           -0.2021     3.9617    -0.0802 C.ar    
  20 C20           -1.0087     4.0614     1.0465 C.ar    
  21 C21           -2.2577     4.6483     0.9509 C.ar    
  22 C22           -2.7025     5.1344    -0.2646 C.ar    
  23 C23           -1.9011     5.0354    -1.3870 C.ar    
  24 C24           -0.6499     4.4562    -1.2961 C.ar    
  25 C25           -4.0638     5.7728    -0.3664 C.3     
  26 F26           -0.5740     3.5855     2.2339 F       
  27 C27           -3.9155     7.2955    -0.3481 C.3     
  28 O28           -4.6889     5.3697    -1.5866 O.3     
  29 C29            8.5692     0.6964    -6.1977 C.2     
  30 C30            8.1780     1.6939    -5.3532 C.2     
  31 C31            8.3820     2.9184    -6.0186 C.2     
  32 N32            8.8713     2.6603    -7.2025 N.2     
  33 N33            8.9980     1.2726    -7.3387 N.pl3   
  34 C34            9.5087     0.5684    -8.5174 C.3     
  35 H35           -0.8959    -0.5406    -0.4310 H       
  36 H36            1.2466    -1.7595    -0.4692 H       
  37 H37            4.0747    -1.0171     0.6004 H       
  38 H38            4.1385    -0.8488    -1.1778 H       
  39 H39            6.3392     1.8853     0.5742 H       
  40 H40            6.4951     0.1196     0.4123 H       
  41 H41            6.4899     3.3295    -1.3668 H       
  42 H42            7.3884     3.6262    -3.6379 H       
  43 H43            7.7646    -0.6234    -4.0271 H       
  44 H44            6.8733    -0.9016    -1.7509 H       
  45 H45           -2.8858     4.7265     1.8260 H       
  46 H46           -2.2518     5.4154    -2.3351 H       
  47 H47           -0.0231     4.3839    -2.1726 H       
  48 H48           -4.6772     5.4574     0.4776 H       
  49 H49           -3.3022     7.6110    -1.1921 H       
  50 H50           -4.9001     7.7574    -0.4218 H       
  51 H51           -3.4387     7.6030     0.5826 H       
  52 H52           -5.5707     5.7439    -1.7191 H       
  53 H53            8.5442    -0.3629    -5.9884 H       
  54 H54            8.1706     3.8996    -5.6200 H       
  55 H55            8.6831     0.3440    -9.1927 H       
  56 H56           10.2364     1.1977    -9.0297 H       
  57 H57            9.9867    -0.3607    -8.2067 H       
@<TRIPOS>BOND
   1    1    2 ar
   2    1    6 ar
   3    2    3 ar
   4    2   35 1
   5    3    4 ar
   6    3   36 1
   7    4    7 1
   8    4    5 ar
   9    5    6 ar
  10    5    9 1
  11    6   17 1
  12    7    8 1
  13    7   37 1
  14    7   38 1
  15    8    9 am
  16    8   10 1
  17    9   18 2
  18   10   11 1
  19   10   39 1
  20   10   40 1
  21   11   12 ar
  22   11   16 ar
  23   12   13 ar
  24   12   41 1
  25   13   14 ar
  26   13   42 1
  27   14   15 ar
  28   14   30 1
  29   15   16 ar
  30   15   43 1
  31   16   44 1
  32   17   19 1
  33   19   20 ar
  34   19   24 ar
  35   20   21 ar
  36   20   26 1
  37   21   22 ar
  38   21   45 1
  39   22   23 ar
  40   22   25 1
  41   23   24 ar
  42   23   46 1
  43   24   47 1
  44   25   27 1
  45   25   28 1
  46   25   48 1
  47   27   49 1
  48   27   50 1
  49   27   51 1
  50   28   52 1
  51   29   30 2
  52   29   33 1
  53   29   53 1
  54   30   31 1
  55   31   32 2
  56   31   54 1
  57   32   33 1
  58   33   34 1
  59   34   55 1
  60   34   56 1
  61   34   57 1

#	End of record

