#	Name: ASD01870111
#	Creating user name:	WinNT
#	Creation time:	15. 06. 2019 19:38

#	Modifying user name:	WinNT
#	Modification time:	15. 06. 2019 19:38

#	Program:	/corina/corina34_cracker 3.40 0067  02.08.2006

@<TRIPOS>MOLECULE
ASD01870111
  27   28    0    0    0
SMALL
NO_CHARGES


@<TRIPOS>ATOM
   1 C1            -0.0168     1.3750    -0.0148 C.ar    
   2 C2             0.0024    -0.0054    -0.0248 C.ar    
   3 C3             1.2080    -0.6899    -0.0353 C.ar    
   4 C4             2.4005     0.0025    -0.0353 C.ar    
   5 C5             2.3945     1.3997    -0.0253 C.ar    
   6 C6             1.1734     2.0871    -0.0151 C.ar    
   7 O7             1.1554     3.4437    -0.0053 O.3     
   8 Cl8            1.2164    -2.4258    -0.0478 Cl      
   9 C9             3.6663     2.1469    -0.0248 C.2     
  10 O10            3.6571     3.3628    -0.0160 O.2     
  11 N11            4.8386     1.4819    -0.0340 N.am    
  12 C12            6.0418     2.1868    -0.1465 C.ar    
  13 C13            7.1754     1.7381     0.5184 C.ar    
  14 C14            6.1058     3.3332    -0.9278 C.ar    
  15 C15            7.2957     4.0276    -1.0370 C.ar    
  16 C16            8.4233     3.5802    -0.3683 C.ar    
  17 C17            8.3625     2.4355     0.4061 C.ar    
  18 Cl18           9.9170     4.4539    -0.5075 Cl      
  19 Cl19           7.3773     5.4608    -2.0131 Cl      
  20 H20           -0.9599     1.9011    -0.0112 H       
  21 H21           -0.9272    -0.5553    -0.0241 H       
  22 H22            3.3376    -0.5343    -0.0428 H       
  23 H23            1.1465     3.8434    -0.8858 H       
  24 H24            4.8480     0.5146     0.0372 H       
  25 H25            7.1288     0.8445     1.1231 H       
  26 H26            5.2268     3.6816    -1.4497 H       
  27 H27            9.2429     2.0890     0.9268 H       
@<TRIPOS>BOND
   1    1    2 ar
   2    1    6 ar
   3    1   20 1
   4    2    3 ar
   5    2   21 1
   6    3    4 ar
   7    3    8 1
   8    4    5 ar
   9    4   22 1
  10    5    6 ar
  11    5    9 1
  12    6    7 1
  13    7   23 1
  14    9   10 2
  15    9   11 am
  16   11   12 1
  17   11   24 1
  18   12   13 ar
  19   12   14 ar
  20   13   17 ar
  21   13   25 1
  22   14   15 ar
  23   14   26 1
  24   15   16 ar
  25   15   19 1
  26   16   17 ar
  27   16   18 1
  28   17   27 1

#	End of record

