#	Name: ASD01850070
#	Creating user name:	WinNT
#	Creation time:	15. 06. 2019 19:38

#	Modifying user name:	WinNT
#	Modification time:	15. 06. 2019 19:38

#	Program:	/corina/corina34_cracker 3.40 0067  02.08.2006

@<TRIPOS>MOLECULE
ASD01850070
  59   62    0    0    0
SMALL
NO_CHARGES


@<TRIPOS>ATOM
   1 C1             8.7312     2.5763     1.6092 C.ar    
   2 C2             8.8905     3.6878     0.8034 C.ar    
   3 C3             7.7809     4.3526     0.3152 C.ar    
   4 C4             6.5122     3.9053     0.6327 C.ar    
   5 C5             6.3528     2.7929     1.4381 C.ar    
   6 C6             7.4621     2.1292     1.9272 C.ar    
   7 C7             3.4336     2.5796    -0.2161 C.3     
   8 N8             3.9764     3.0890     1.0457 N.am    
   9 C9             4.2210     3.1727    -1.3863 C.3     
  10 C10            3.5620     4.2780     1.5264 C.2     
  11 C11            4.2034     4.8563     2.7614 C.3     
  12 O12            2.6729     4.8824     0.9651 O.2     
  13 C13            3.8215     6.3327     2.8905 C.3     
  14 C14            3.7162     4.0920     3.9945 C.3     
  15 C15            4.3965     4.6599     5.2441 C.3     
  16 N16            4.1547     6.1081     5.2973 N.am    
  17 C17            4.5030     6.9260     4.1275 C.3     
  18 S18            3.5013     6.8053     6.6499 S.o2    
  19 C19            4.8404     7.2599     7.7010 C.ar    
  20 C20            5.4042     8.4968     7.5807 C.ar    
  21 C21            6.4674     8.8569     8.4164 C.ar    
  22 C22            6.9440     7.9392     9.3722 C.ar    
  23 C23            6.3483     6.6841     9.4720 C.ar    
  24 C24            5.3087     6.3575     8.6485 C.ar    
  25 C25            7.2831    10.0585     8.5592 C.2     
  26 N26            8.1458     9.8428     9.5108 N.2     
  27 N27            7.9719     8.5576    10.0347 N.pl3   
  28 O28            2.8961     8.0182     6.2237 O.2     
  29 O29            2.7904     5.7781     7.3272 O.2     
  30 C30            4.9695     2.3059     1.7850 C.3     
  31 C31            7.2883     0.9170     2.8055 C.3     
  32 F32            8.5426     0.3745     3.1051 F       
  33 F33            6.6456     1.2884     3.9912 F       
  34 F34            6.5155    -0.0375     2.1354 F       
  35 H35            9.5980     2.0543     1.9869 H       
  36 H36            9.8819     4.0373     0.5553 H       
  37 H37            7.9054     5.2215    -0.3139 H       
  38 H38            5.6454     4.4251     0.2520 H       
  39 H39            3.5173     1.4930    -0.2354 H       
  40 H40            2.3851     2.8648    -0.3020 H       
  41 H41            4.2202     4.2600    -1.3108 H       
  42 H42            5.2474     2.8071    -1.3559 H       
  43 H43            3.7563     2.8733    -2.3257 H       
  44 H44            5.2869     4.7669     2.6836 H       
  45 H45            4.1481     6.8720     2.0013 H       
  46 H46            2.7400     6.4211     2.9934 H       
  47 H47            2.6357     4.2015     4.0870 H       
  48 H48            3.9679     3.0365     3.8912 H       
  49 H49            3.9803     4.1870     6.1336 H       
  50 H50            5.4687     4.4701     5.1946 H       
  51 H51            5.5839     6.9210     3.9870 H       
  52 H52            4.1571     7.9483     4.2803 H       
  53 H53            5.0322     9.1938     6.8444 H       
  54 H54            6.7056     5.9719    10.2011 H       
  55 H55            4.8497     5.3833     8.7297 H       
  56 H56            7.1884    10.9646     7.9793 H       
  57 H57            8.4949     8.1668    10.7521 H       
  58 H58            4.8766     1.2538     1.5156 H       
  59 H59            4.8010     2.4230     2.8555 H       
@<TRIPOS>BOND
   1    1    2 ar
   2    1    6 ar
   3    1   35 1
   4    2    3 ar
   5    2   36 1
   6    3    4 ar
   7    3   37 1
   8    4    5 ar
   9    4   38 1
  10    5    6 ar
  11    5   30 1
  12    6   31 1
  13    7    8 1
  14    7    9 1
  15    7   39 1
  16    7   40 1
  17    8   10 am
  18    8   30 1
  19    9   41 1
  20    9   42 1
  21    9   43 1
  22   10   11 1
  23   10   12 2
  24   11   13 1
  25   11   14 1
  26   11   44 1
  27   13   17 1
  28   13   45 1
  29   13   46 1
  30   14   15 1
  31   14   47 1
  32   14   48 1
  33   15   16 1
  34   15   49 1
  35   15   50 1
  36   16   17 1
  37   16   18 am
  38   17   51 1
  39   17   52 1
  40   18   19 1
  41   18   28 2
  42   18   29 2
  43   19   20 ar
  44   19   24 ar
  45   20   21 ar
  46   20   53 1
  47   21   22 ar
  48   21   25 1
  49   22   23 ar
  50   22   27 1
  51   23   24 ar
  52   23   54 1
  53   24   55 1
  54   25   26 2
  55   25   56 1
  56   26   27 1
  57   27   57 1
  58   30   58 1
  59   30   59 1
  60   31   32 1
  61   31   33 1
  62   31   34 1

#	End of record

