#	Name: ASD01883117
#	Creating user name:	WinNT
#	Creation time:	15. 06. 2019 19:45

#	Modifying user name:	WinNT
#	Modification time:	15. 06. 2019 19:45

#	Program:	/corina/corina34_cracker 3.40 0067  02.08.2006

@<TRIPOS>MOLECULE
ASD01883117
  46   48    0    0    0
SMALL
NO_CHARGES


@<TRIPOS>ATOM
   1 N1            -0.0680     1.2358     1.3232 N.am    
   2 C2            -0.0327    -0.0387     0.8923 C.2     
   3 C3            -1.2416    -0.7419     0.6658 C.2     
   4 C4            -2.4606    -0.0812     0.9000 C.2     
   5 C5            -2.4310     1.2533     1.3506 C.2     
   6 C6            -1.2456     1.8712     1.5544 C.2     
   7 O7             1.0384    -0.5875     0.6968 O.2     
   8 C8            -1.2226    -2.0983     0.2070 C.1     
   9 N9            -1.2074    -3.1743    -0.1570 N.1     
  10 C10            1.1900     1.9505     1.5531 C.3     
  11 C11            1.6155     2.6609     0.2666 C.3     
  12 C12            2.9293     3.4073     0.5068 C.3     
  13 C13            3.3548     4.1177    -0.7798 C.3     
  14 C14           -3.7473    -0.7729     0.6776 C.ar    
  15 C15           -4.5991    -1.0309     1.7545 C.ar    
  16 C16           -5.7976    -1.6760     1.5430 C.ar    
  17 C17           -6.1598    -2.0704     0.2605 C.ar    
  18 C18           -5.3150    -1.8159    -0.8133 C.ar    
  19 C19           -4.1178    -1.1654    -0.6110 C.ar    
  20 O20           -7.3418    -2.7063     0.0562 O.3     
  21 C21           -8.4746    -1.9634     0.0709 C.ar    
  22 C22           -9.7240    -2.5948    -0.0269 C.ar    
  23 C23          -10.8810    -1.8069    -0.0097 C.ar    
  24 C24          -10.7399    -0.4351     0.1036 C.ar    
  25 C25           -9.4733     0.1134     0.1956 C.ar    
  26 N26           -8.3965    -0.6483     0.1828 N.ar    
  27 C27           -9.8138    -4.0193    -0.1428 C.1     
  28 N28           -9.8851    -5.1493    -0.2348 N.1     
  29 H29           -3.3546     1.7811     1.5372 H       
  30 H30           -1.2353     2.8944     1.8999 H       
  31 H31            1.0504     2.6861     2.3453 H       
  32 H32            1.9624     1.2405     1.8487 H       
  33 H33            1.7551     1.9253    -0.5255 H       
  34 H34            0.8431     3.3709    -0.0289 H       
  35 H35            2.7897     4.1429     1.2989 H       
  36 H36            3.7018     2.6973     0.8023 H       
  37 H37            3.4944     3.3820    -1.5719 H       
  38 H38            2.5824     4.8277    -1.0753 H       
  39 H39            4.2908     4.6494    -0.6087 H       
  40 H40           -4.3180    -0.7254     2.7515 H       
  41 H41           -6.4566    -1.8758     2.3750 H       
  42 H42           -5.5998    -2.1243    -1.8084 H       
  43 H43           -3.4620    -0.9677    -1.4459 H       
  44 H44          -11.8593    -2.2585    -0.0833 H       
  45 H45          -11.6116     0.2023     0.1197 H       
  46 H46           -9.3642     1.1842     0.2836 H       
@<TRIPOS>BOND
   1    1    2 am
   2    1   10 1
   3    1    6 1
   4    2    3 1
   5    2    7 2
   6    3    4 2
   7    3    8 1
   8    4    5 1
   9    4   14 1
  10    5    6 2
  11    5   29 1
  12    6   30 1
  13    8    9 3
  14   10   11 1
  15   10   31 1
  16   10   32 1
  17   11   12 1
  18   11   33 1
  19   11   34 1
  20   12   13 1
  21   12   35 1
  22   12   36 1
  23   13   37 1
  24   13   38 1
  25   13   39 1
  26   14   15 ar
  27   14   19 ar
  28   15   16 ar
  29   15   40 1
  30   16   17 ar
  31   16   41 1
  32   17   18 ar
  33   17   20 1
  34   18   19 ar
  35   18   42 1
  36   19   43 1
  37   20   21 1
  38   21   22 ar
  39   21   26 ar
  40   22   23 ar
  41   22   27 1
  42   23   24 ar
  43   23   44 1
  44   24   25 ar
  45   24   45 1
  46   25   26 ar
  47   25   46 1
  48   27   28 3

#	End of record

