#	Name: ASD01883835
#	Creating user name:	WinNT
#	Creation time:	15. 06. 2019 19:47

#	Modifying user name:	WinNT
#	Modification time:	15. 06. 2019 19:47

#	Program:	/corina/corina34_cracker 3.40 0067  02.08.2006

@<TRIPOS>MOLECULE
ASD01883835
  52   54    0    0    0
SMALL
NO_CHARGES


@<TRIPOS>ATOM
   1 N1             0.2560     1.7495     0.4424 N.ar    
   2 C2             0.1741     0.4334     0.3955 C.ar    
   3 C3             1.3102    -0.3440     0.3089 C.ar    
   4 C4             2.5594     0.2824     0.2712 C.ar    
   5 C5             2.5998     1.6784     0.3234 C.ar    
   6 C6             1.4146     2.3796     0.4094 C.ar    
   7 C7             3.8082    -0.5132     0.1788 C.2     
   8 C8             4.0337    -1.7686     0.7746 C.2     
   9 C9             5.2960    -2.1597     0.4538 C.2     
  10 N10            5.8472    -1.1849    -0.3174 N.pl3   
  11 N11            4.8958    -0.1700    -0.4793 N.2     
  12 C12            1.4440     3.8852     0.4663 C.3     
  13 C13            7.1979    -1.1969    -0.8846 C.3     
  14 C14            7.1875    -1.9603    -2.2105 C.3     
  15 O15            6.3851    -1.2552    -3.1598 O.3     
  16 N16            5.9136    -3.3460     0.8454 N.pl3   
  17 C17            6.7295    -3.3675     1.9791 C.ar    
  18 C18            7.2642    -4.5683     2.4290 C.ar    
  19 C19            8.0707    -4.5874     3.5502 C.ar    
  20 C20            8.3464    -3.4134     4.2260 C.ar    
  21 C21            7.8150    -2.2137     3.7813 C.ar    
  22 C22            7.0123    -2.1876     2.6554 C.ar    
  23 C23            9.2264    -3.4387     5.4492 C.3     
  24 F24            9.6386    -4.7518     5.7001 F       
  25 F25           10.3481    -2.6309     5.2335 F       
  26 F26            8.5093    -2.9567     6.5495 F       
  27 C27            8.6175    -2.0806    -2.7410 C.3     
  28 C28            5.7495    -2.0977    -4.1233 C.3     
  29 F29            8.0859    -1.0682     4.4442 F       
  30 Cl30           2.9024    -2.6584     1.7454 Cl      
  31 C31            5.7073    -4.5705     0.0681 C.3     
  32 H32           -0.7955    -0.0415     0.4255 H       
  33 H33            1.2357    -1.4208     0.2712 H       
  34 H34            3.5448     2.2006     0.2971 H       
  35 H35            1.5020     4.2084     1.5057 H       
  36 H36            2.3143     4.2524    -0.0775 H       
  37 H37            0.5369     4.2838     0.0120 H       
  38 H38            7.5285    -0.1728    -1.0576 H       
  39 H39            7.8798    -1.6862    -0.1890 H       
  40 H40            6.7733    -2.9562    -2.0532 H       
  41 H41            7.0492    -5.4864     1.9025 H       
  42 H42            8.4862    -5.5210     3.8997 H       
  43 H43            6.5978    -1.2526     2.3083 H       
  44 H44            9.2296    -2.6184    -2.0169 H       
  45 H45            8.6101    -2.6245    -3.6856 H       
  46 H46            9.0317    -1.0848    -2.8984 H       
  47 H47            6.5076    -2.6433    -4.6851 H       
  48 H48            5.0964    -2.8053    -3.6126 H       
  49 H49            5.1598    -1.4872    -4.8070 H       
  50 H50            6.5240    -4.6911    -0.6436 H       
  51 H51            5.6819    -5.4279     0.7407 H       
  52 H52            4.7623    -4.5037    -0.4712 H       
@<TRIPOS>BOND
   1    1    2 ar
   2    1    6 ar
   3    2    3 ar
   4    2   32 1
   5    3    4 ar
   6    3   33 1
   7    4    5 ar
   8    4    7 1
   9    5    6 ar
  10    5   34 1
  11    6   12 1
  12    7    8 1
  13    7   11 2
  14    8    9 2
  15    8   30 1
  16    9   10 1
  17    9   16 1
  18   10   11 1
  19   10   13 1
  20   12   35 1
  21   12   36 1
  22   12   37 1
  23   13   14 1
  24   13   38 1
  25   13   39 1
  26   14   15 1
  27   14   27 1
  28   14   40 1
  29   15   28 1
  30   16   17 1
  31   16   31 1
  32   17   18 ar
  33   17   22 ar
  34   18   19 ar
  35   18   41 1
  36   19   20 ar
  37   19   42 1
  38   20   21 ar
  39   20   23 1
  40   21   22 ar
  41   21   29 1
  42   22   43 1
  43   23   24 1
  44   23   25 1
  45   23   26 1
  46   27   44 1
  47   27   45 1
  48   27   46 1
  49   28   47 1
  50   28   48 1
  51   28   49 1
  52   31   50 1
  53   31   51 1
  54   31   52 1

#	End of record

