#	Name: ASD06170042
#	Creating user name:	WinNT
#	Creation time:	15. 06. 2019 21:05

#	Modifying user name:	WinNT
#	Modification time:	15. 06. 2019 21:05

#	Program:	/corina/corina34_cracker 3.40 0067  02.08.2006

@<TRIPOS>MOLECULE
ASD06170042
  60   64    0    0    0
SMALL
NO_CHARGES


@<TRIPOS>ATOM
   1 N1             0.1056    -1.8119     1.1866 N.pl3   
   2 N2             0.0318    -0.7794     0.2470 N.am    
   3 C3             1.2859    -0.3877    -0.0602 C.2     
   4 C4             2.1934    -1.2279     0.7370 C.2     
   5 C5             1.3937    -2.0771     1.4767 C.2     
   6 C6             3.6603    -1.1745     0.7444 C.2     
   7 O7             4.2932    -1.9324     1.4558 O.2     
   8 N8             4.3063    -0.2862    -0.0366 N.am    
   9 O9             1.6039     0.4881    -0.8430 O.2     
  10 C10            1.8805    -3.1236     2.4455 C.3     
  11 C11           -1.0474    -2.4993     1.7734 C.3     
  12 C12            5.6995    -0.1691     0.0406 C.ar    
  13 C13            6.4802    -1.2968     0.2594 C.ar    
  14 C14            7.8554    -1.1802     0.3356 C.ar    
  15 C15            8.4556     0.0652     0.1931 C.ar    
  16 C16            7.6752     1.1903    -0.0248 C.ar    
  17 C17            6.3011     1.0734    -0.1072 C.ar    
  18 O18            9.8086     0.1804     0.2680 O.3     
  19 N19           11.9965    -0.7183    -3.1106 N.ar    
  20 C20           10.6847    -0.7153    -3.1550 C.ar    
  21 C21            9.9149    -0.4179    -2.0379 C.ar    
  22 C22           10.5345    -0.1142    -0.8382 C.ar    
  23 C23           11.9475    -0.1203    -0.8019 C.ar    
  24 C24           12.6460     0.1767     0.3775 C.ar    
  25 C25           14.0069     0.1621     0.3806 C.ar    
  26 C26           14.7214    -0.1463    -0.7805 C.ar    
  27 C27           14.0648    -0.4422    -1.9537 C.ar    
  28 C28           12.6612    -0.4342    -1.9843 C.ar    
  29 O29           16.0794    -0.1537    -0.7511 O.3     
  30 C30           16.7030     0.1620     0.4953 C.3     
  31 F31            8.6158    -2.2763     0.5488 F       
  32 C32           -1.1453    -0.2425    -0.2860 C.ar    
  33 C33           -1.7534    -0.8465    -1.3804 C.ar    
  34 C34           -2.9160    -0.3137    -1.9036 C.ar    
  35 C35           -3.4741     0.8190    -1.3394 C.ar    
  36 C36           -2.8714     1.4217    -0.2509 C.ar    
  37 C37           -1.7117     0.8912     0.2806 C.ar    
  38 Cl38          -1.0528    -2.2680    -2.0892 Cl      
  39 H39            3.8060     0.2721    -0.6523 H       
  40 H40            2.0271    -4.0665     1.9186 H       
  41 H41            2.8252    -2.8017     2.8838 H       
  42 H42            1.1414    -3.2597     3.2351 H       
  43 H43           -1.3088    -3.3603     1.1582 H       
  44 H44           -0.7970    -2.8345     2.7799 H       
  45 H45           -1.8942    -1.8145     1.8186 H       
  46 H46            6.0131    -2.2642     0.3704 H       
  47 H47            8.1420     2.1579    -0.1348 H       
  48 H48            5.6943     1.9495    -0.2818 H       
  49 H49           10.1904    -0.9504    -4.0860 H       
  50 H50            8.8370    -0.4231    -2.1053 H       
  51 H51           12.1052     0.4169     1.2809 H       
  52 H52           14.5410     0.3917     1.2908 H       
  53 H53           14.6261    -0.6788    -2.8455 H       
  54 H54           16.3897    -0.5583     1.2511 H       
  55 H55           17.7861     0.1203     0.3806 H       
  56 H56           16.4087     1.1648     0.8051 H       
  57 H57           -3.3891    -0.7819    -2.7541 H       
  58 H58           -4.3827     1.2339    -1.7503 H       
  59 H59           -3.3099     2.3061     0.1872 H       
  60 H60           -1.2441     1.3603     1.1337 H       
@<TRIPOS>BOND
   1    1    2 1
   2    1    5 1
   3    1   11 1
   4    2    3 am
   5    2   32 1
   6    3    4 1
   7    3    9 2
   8    4    5 2
   9    4    6 1
  10    5   10 1
  11    6    7 2
  12    6    8 am
  13    8   12 1
  14    8   39 1
  15   10   40 1
  16   10   41 1
  17   10   42 1
  18   11   43 1
  19   11   44 1
  20   11   45 1
  21   12   13 ar
  22   12   17 ar
  23   13   14 ar
  24   13   46 1
  25   14   15 ar
  26   14   31 1
  27   15   16 ar
  28   15   18 1
  29   16   17 ar
  30   16   47 1
  31   17   48 1
  32   18   22 1
  33   19   20 ar
  34   19   28 ar
  35   20   21 ar
  36   20   49 1
  37   21   22 ar
  38   21   50 1
  39   22   23 ar
  40   23   24 ar
  41   23   28 ar
  42   24   25 ar
  43   24   51 1
  44   25   26 ar
  45   25   52 1
  46   26   27 ar
  47   26   29 1
  48   27   28 ar
  49   27   53 1
  50   29   30 1
  51   30   54 1
  52   30   55 1
  53   30   56 1
  54   32   33 ar
  55   32   37 ar
  56   33   34 ar
  57   33   38 1
  58   34   35 ar
  59   34   57 1
  60   35   36 ar
  61   35   58 1
  62   36   37 ar
  63   36   59 1
  64   37   60 1

#	End of record

