#	Name: ASD01001060
#	Creating user name:	WinNT
#	Creation time:	15. 06. 2019 18:55

#	Modifying user name:	WinNT
#	Modification time:	15. 06. 2019 18:55

#	Program:	/corina/corina34_cracker 3.40 0067  02.08.2006

@<TRIPOS>MOLECULE
ASD01001060
  48   50    0    0    0
SMALL
NO_CHARGES


@<TRIPOS>ATOM
   1 C1            -0.0664     1.7742     0.3120 C.ar    
   2 C2            -0.1644     0.4595     0.7278 C.ar    
   3 C3             1.1751     2.3317     0.0696 C.ar    
   4 C4             0.9790    -0.2977     0.9011 C.ar    
   5 C5             2.3186     1.5745     0.2429 C.ar    
   6 C6             2.2205     0.2596     0.6582 C.ar    
   7 C7             3.6720     2.1819    -0.0223 C.3     
   8 C8             4.7425     1.1496     0.2215 C.ar    
   9 C9             3.7412     2.6490    -1.4534 C.ar    
  10 C10            3.8807     3.3274     0.8783 C.1     
  11 C11            5.6189     1.2994     1.2799 C.ar    
  12 C12            4.8444     0.0499    -0.6099 C.ar    
  13 C13            2.7135     2.3505    -2.3284 C.ar    
  14 C14            4.8298     3.3808    -1.8897 C.ar    
  15 C15            4.0472     4.2409     1.5966 C.1     
  16 C16            6.5973     0.3496     1.5069 C.ar    
  17 C17            5.8263    -0.8970    -0.3863 C.ar    
  18 C18            2.7744     2.7838    -3.6397 C.ar    
  19 C19            4.8933     3.8093    -3.2025 C.ar    
  20 C20            4.2559     5.3864     2.4973 C.3     
  21 C21            6.6989    -0.7503     0.6758 C.ar    
  22 C22            3.8627     3.5160    -4.0759 C.ar    
  23 N23            5.5752     5.9785     2.2388 N.3     
  24 C24           -1.5178    -0.1481     0.9926 C.3     
  25 C25            4.1867     4.9193     3.9284 C.2     
  26 O26            5.2042     4.7240     4.5501 O.2     
  27 O27            2.9947     4.7201     4.5125 O.3     
  28 H28           -0.9599     2.3644     0.1723 H       
  29 H29            1.2517     3.3587    -0.2556 H       
  30 H30            0.9025    -1.3246     1.2266 H       
  31 H31            3.1139    -0.3318     0.7943 H       
  32 H32            5.5395     2.1588     1.9293 H       
  33 H33            4.1566    -0.0696    -1.4340 H       
  34 H34            1.8632     1.7785    -1.9876 H       
  35 H35            5.6305     3.6182    -1.2049 H       
  36 H36            7.2825     0.4671     2.3334 H       
  37 H37            5.9057    -1.7563    -1.0356 H       
  38 H38            1.9718     2.5500    -4.3235 H       
  39 H39            5.7436     4.3813    -3.5433 H       
  40 H40            3.4817     6.1330     2.3209 H       
  41 H41            7.4635    -1.4922     0.8530 H       
  42 H42            3.9123     3.8507    -5.1015 H       
  43 H43            5.7165     6.8055     2.7992 H       
  44 H44            6.3106     5.3056     2.3954 H       
  45 H45           -1.8985    -0.6004     0.0768 H       
  46 H46           -1.4284    -0.9119     1.7650 H       
  47 H47           -2.2055     0.6285     1.3274 H       
  48 H48            3.0008     4.4204     5.4318 H       
@<TRIPOS>BOND
   1    1    2 ar
   2    1    3 ar
   3    1   28 1
   4    2    4 ar
   5    2   24 1
   6    3    5 ar
   7    3   29 1
   8    4    6 ar
   9    4   30 1
  10    5    6 ar
  11    5    7 1
  12    6   31 1
  13    7   10 1
  14    7    8 1
  15    7    9 1
  16    8   12 ar
  17    8   11 ar
  18    9   14 ar
  19    9   13 ar
  20   10   15 3
  21   11   16 ar
  22   11   32 1
  23   12   17 ar
  24   12   33 1
  25   13   18 ar
  26   13   34 1
  27   14   19 ar
  28   14   35 1
  29   15   20 1
  30   16   21 ar
  31   16   36 1
  32   17   21 ar
  33   17   37 1
  34   18   22 ar
  35   18   38 1
  36   19   22 ar
  37   19   39 1
  38   20   23 1
  39   20   25 1
  40   20   40 1
  41   21   41 1
  42   22   42 1
  43   23   43 1
  44   23   44 1
  45   24   45 1
  46   24   46 1
  47   24   47 1
  48   25   26 2
  49   25   27 1
  50   27   48 1

#	End of record

