#	Name: ASD03200014
#	Creating user name:	WinNT
#	Creation time:	15. 06. 2019 20:34

#	Modifying user name:	WinNT
#	Modification time:	15. 06. 2019 20:34

#	Program:	/corina/corina34_cracker 3.40 0067  02.08.2006

@<TRIPOS>MOLECULE
ASD03200014
  50   53    0    0    0
SMALL
NO_CHARGES


@<TRIPOS>ATOM
   1 C1             0.9668    -1.0239    -0.1637 C.3     
   2 N2            -0.0330     0.0400    -0.0057 N.3     
   3 C3             0.2976     0.9155     1.1259 C.3     
   4 C4             1.6444     1.5957     0.8699 C.3     
   5 C5             2.7259     0.5260     0.6951 C.3     
   6 C6             2.3336    -0.4016    -0.4583 C.3     
   7 C7            -1.3132    -0.4941     0.1333 C.ar    
   8 C8            -2.0178    -0.3605     1.3272 C.ar    
   9 C9            -3.2829    -0.9034     1.4253 C.ar    
  10 N10           -3.8281    -1.5434     0.4082 N.ar    
  11 C11           -3.1974    -1.6940    -0.7414 C.ar    
  12 C12           -1.9270    -1.1741    -0.9254 C.ar    
  13 N13           -1.2615    -1.3367    -2.1479 N.am    
  14 C14           -1.4450    -2.4593    -2.8710 C.2     
  15 C15           -0.8504    -2.5769    -4.2049 C.2     
  16 O16           -2.1048    -3.3756    -2.4157 O.2     
  17 C17           -1.0852    -3.6519    -5.0342 C.2     
  18 S18           -0.1862    -3.3944    -6.5274 S.3     
  19 C19            0.4255    -1.8657    -5.9059 C.2     
  20 N20           -0.0421    -1.6501    -4.7189 N.2     
  21 C21            1.3361    -0.9579    -6.6357 C.ar    
  22 C22            1.6930    -1.2361    -7.9555 C.ar    
  23 C23            2.5437    -0.3837    -8.6316 C.ar    
  24 C24            3.0415     0.7444    -8.0020 C.ar    
  25 C25            2.6911     1.0247    -6.6932 C.ar    
  26 C26            1.8377     0.1841    -6.0090 C.ar    
  27 N27            1.9847     2.4552     2.0115 N.3     
  28 N28           -1.8844    -4.7396    -4.7457 N.pl3   
  29 Cl29           2.9899    -0.7275   -10.2736 Cl      
  30 H30            1.0240    -1.6078     0.7549 H       
  31 H31            0.6781    -1.6738    -0.9897 H       
  32 H32           -0.4771     1.6742     1.2366 H       
  33 H33            0.3580     0.3225     2.0385 H       
  34 H34            1.5807     2.2000    -0.0351 H       
  35 H35            3.6788     1.0048     0.4695 H       
  36 H36            2.8169    -0.0536     1.6138 H       
  37 H37            3.0784    -1.1908    -0.5601 H       
  38 H38            2.2807     0.1713    -1.3841 H       
  39 H39           -1.5798     0.1609     2.1654 H       
  40 H40           -3.8346    -0.8033     2.3483 H       
  41 H41           -3.6791    -2.2250    -1.5491 H       
  42 H42           -0.6688    -0.6414    -2.4738 H       
  43 H43            1.3053    -2.1161    -8.4472 H       
  44 H44            3.7064     1.4082    -8.5346 H       
  45 H45            3.0834     1.9059    -6.2074 H       
  46 H46            1.5649     0.4046    -4.9876 H       
  47 H47            2.8706     2.9157     1.8660 H       
  48 H48            1.2530     3.1268     2.1893 H       
  49 H49           -2.3417    -4.7926    -3.8919 H       
  50 H50           -1.9888    -5.4510    -5.3968 H       
@<TRIPOS>BOND
   1    1    2 1
   2    1    6 1
   3    1   30 1
   4    1   31 1
   5    2    3 1
   6    2    7 1
   7    3    4 1
   8    3   32 1
   9    3   33 1
  10    4    5 1
  11    4   27 1
  12    4   34 1
  13    5    6 1
  14    5   35 1
  15    5   36 1
  16    6   37 1
  17    6   38 1
  18    7    8 ar
  19    7   12 ar
  20    8    9 ar
  21    8   39 1
  22    9   10 ar
  23    9   40 1
  24   10   11 ar
  25   11   12 ar
  26   11   41 1
  27   12   13 1
  28   13   14 am
  29   13   42 1
  30   14   15 1
  31   14   16 2
  32   15   17 2
  33   15   20 1
  34   17   18 1
  35   17   28 1
  36   18   19 1
  37   19   20 2
  38   19   21 1
  39   21   22 ar
  40   21   26 ar
  41   22   23 ar
  42   22   43 1
  43   23   24 ar
  44   23   29 1
  45   24   25 ar
  46   24   44 1
  47   25   26 ar
  48   25   45 1
  49   26   46 1
  50   27   47 1
  51   27   48 1
  52   28   49 1
  53   28   50 1

#	End of record

