#	Name: ASD04880133
#	Creating user name:	WinNT
#	Creation time:	15. 06. 2019 20:52

#	Modifying user name:	WinNT
#	Modification time:	15. 06. 2019 20:52

#	Program:	/corina/corina34_cracker 3.40 0067  02.08.2006

@<TRIPOS>MOLECULE
ASD04880133
  47   49    0    0    0
SMALL
NO_CHARGES


@<TRIPOS>ATOM
   1 C1            -0.0144     1.2118     0.0087 C.2     
   2 O2             0.0433    -0.0026     0.0316 O.2     
   3 N3             1.1187     1.9394    -0.0484 N.am    
   4 N4             1.1865     3.3238    -0.1914 N.2     
   5 C5             2.3868     3.7917    -0.2204 C.2     
   6 C6             3.3752     2.6554    -0.0860 C.3     
   7 C7             2.4860     1.4022     0.0362 C.3     
   8 C8             4.2657     2.5691    -1.3272 C.3     
   9 C9             4.2248     2.8293     1.1745 C.3     
  10 C10            2.7416     5.2154    -0.3632 C.ar    
  11 C11            1.7365     6.1796    -0.4799 C.ar    
  12 C12            2.0747     7.5128    -0.6130 C.ar    
  13 C13            3.4152     7.8933    -0.6311 C.ar    
  14 C14            4.4129     6.9368    -0.5158 C.ar    
  15 C15            4.0830     5.6048    -0.3763 C.ar    
  16 O16            3.7458     9.2053    -0.7626 O.3     
  17 C17            5.1384     9.5255    -0.7736 C.3     
  18 O18            1.0993     8.4536    -0.7268 O.3     
  19 C19           -0.2530     7.9924    -0.7009 C.3     
  20 C20           -1.3269     1.8897     0.0374 C.ar    
  21 C21           -2.5034     1.1431    -0.0541 C.ar    
  22 C22           -3.7270     1.7829    -0.0268 C.ar    
  23 C23           -3.7872     3.1637     0.0909 C.ar    
  24 C24           -2.6234     3.9073     0.1819 C.ar    
  25 C25           -1.3957     3.2785     0.1618 C.ar    
  26 F26           -4.8668     1.0630    -0.1152 F       
  27 Br27          -5.4659     4.0336     0.1265 Br      
  28 H28            2.6454     0.9084     0.9948 H       
  29 H29            2.6798     0.7149    -0.7873 H       
  30 H30            4.8339     3.4934    -1.4318 H       
  31 H31            4.9532     1.7297    -1.2235 H       
  32 H32            3.6443     2.4227    -2.2107 H       
  33 H33            3.5746     2.8658     2.0486 H       
  34 H34            4.9125     1.9889     1.2680 H       
  35 H35            4.7924     3.7573     1.1049 H       
  36 H36            0.6980     5.8833    -0.4664 H       
  37 H37            5.4505     7.2362    -0.5307 H       
  38 H38            4.8619     4.8625    -0.2823 H       
  39 H39            5.6216     9.0167    -1.6077 H       
  40 H40            5.2627    10.6028    -0.8839 H       
  41 H41            5.5932     9.2013     0.1625 H       
  42 H42           -0.9286     8.8420    -0.8003 H       
  43 H43           -0.4165     7.2997    -1.5264 H       
  44 H44           -0.4455     7.4838     0.2437 H       
  45 H45           -2.4566     0.0681    -0.1465 H       
  46 H46           -2.6766     4.9821     0.2733 H       
  47 H47           -0.4890     3.8601     0.2378 H       
@<TRIPOS>BOND
   1    1    2 2
   2    1    3 am
   3    1   20 1
   4    3    4 1
   5    3    7 1
   6    4    5 2
   7    5    6 1
   8    5   10 1
   9    6    7 1
  10    6    8 1
  11    6    9 1
  12    7   28 1
  13    7   29 1
  14    8   30 1
  15    8   31 1
  16    8   32 1
  17    9   33 1
  18    9   34 1
  19    9   35 1
  20   10   11 ar
  21   10   15 ar
  22   11   12 ar
  23   11   36 1
  24   12   13 ar
  25   12   18 1
  26   13   14 ar
  27   13   16 1
  28   14   15 ar
  29   14   37 1
  30   15   38 1
  31   16   17 1
  32   17   39 1
  33   17   40 1
  34   17   41 1
  35   18   19 1
  36   19   42 1
  37   19   43 1
  38   19   44 1
  39   20   21 ar
  40   20   25 ar
  41   21   22 ar
  42   21   45 1
  43   22   23 ar
  44   22   26 1
  45   23   24 ar
  46   23   27 1
  47   24   25 ar
  48   24   46 1
  49   25   47 1

#	End of record

