#	Name: ASD00069150
#	Creating user name:	WinNT
#	Creation time:	15. 06. 2019 18:29

#	Modifying user name:	WinNT
#	Modification time:	15. 06. 2019 18:29

#	Program:	/corina/corina34_cracker 3.40 0067  02.08.2006

@<TRIPOS>MOLECULE
ASD00069150
  62   66    0    0    0
SMALL
NO_CHARGES


@<TRIPOS>ATOM
   1 C1            -0.0637     1.2951    -0.5915 C.2     
   2 N2            -0.0207     0.0044    -0.3459 N.2     
   3 C3             1.2316    -0.4328    -0.5282 C.2     
   4 C4             2.0012     0.6330    -0.9039 C.2     
   5 N5             1.1899     1.7133    -0.9432 N.pl3   
   6 C6            -1.2637     2.1475    -0.5082 C.2     
   7 O7            -1.1847     3.3349    -0.7595 O.2     
   8 N8            -2.4481     1.6111    -0.1534 N.am    
   9 C9             1.2978    -4.1250     0.1872 C.ar    
  10 C10            0.8189    -2.8400     0.0362 C.ar    
  11 C11            1.7017    -1.8286    -0.3530 C.ar    
  12 C12            3.0400    -2.1687    -0.5730 C.ar    
  13 C13            3.4348    -3.4786    -0.3990 C.ar    
  14 N14            2.5689    -4.4038    -0.0305 N.ar    
  15 C15            0.3580    -5.2236     0.6124 C.3     
  16 C16           -3.5620     2.4380     0.0382 C.ar    
  17 C17           -4.8463     1.8957     0.0209 C.ar    
  18 C18           -5.9464     2.7212     0.2115 C.ar    
  19 C19           -5.7650     4.0779     0.4179 C.ar    
  20 C20           -4.4907     4.6142     0.4343 C.ar    
  21 C21           -3.3901     3.7979     0.2515 C.ar    
  22 F22           -7.1930     2.2007     0.1952 F       
  23 C23           -7.9439    -1.4339    -0.4418 C.3     
  24 N24           -8.6226    -2.1185     0.6662 N.3     
  25 C25           -8.6783    -3.5683     0.4394 C.3     
  26 C26           -7.2567    -4.1300     0.3653 C.3     
  27 C27           -6.5015    -3.4451    -0.7773 C.3     
  28 C28           -6.5014    -1.9327    -0.5438 C.3     
  29 C29           -5.7997    -1.2342    -1.7108 C.3     
  30 C30           -5.7498     0.2717    -1.4417 C.3     
  31 N31           -5.0263     0.5224    -0.1887 N.3     
  32 C32           -5.7091    -0.0991     0.9532 C.3     
  33 C33           -5.7576    -1.6161     0.7559 C.3     
  34 H34            3.0579     0.6153    -1.1266 H       
  35 H35            1.4488     2.6181    -1.1779 H       
  36 H36           -2.5290     0.6523    -0.0309 H       
  37 H37           -0.2229    -2.6189     0.2157 H       
  38 H38            3.7539    -1.4167    -0.8750 H       
  39 H39            4.4663    -3.7510    -0.5669 H       
  40 H40           -0.0848    -5.6848    -0.2704 H       
  41 H41            0.9095    -5.9752     1.1771 H       
  42 H42           -0.4305    -4.8052     1.2380 H       
  43 H43           -6.6212     4.7193     0.5661 H       
  44 H44           -4.3544     5.6734     0.5954 H       
  45 H45           -2.3961     4.2200     0.2698 H       
  46 H46           -8.4678    -1.6444    -1.3742 H       
  47 H47           -7.9446    -0.3592    -0.2596 H       
  48 H48           -8.1793    -1.9072     1.5476 H       
  49 H49           -9.2142    -4.0440     1.2608 H       
  50 H50           -9.1976    -3.7696    -0.4975 H       
  51 H51           -6.7412    -3.9412     1.3069 H       
  52 H52           -7.2987    -5.2036     0.1816 H       
  53 H53           -5.4745    -3.8094    -0.8052 H       
  54 H54           -6.9937    -3.6674    -1.7241 H       
  55 H55           -4.7851    -1.6202    -1.8089 H       
  56 H56           -6.3516    -1.4213    -2.6319 H       
  57 H57           -5.2364     0.7707    -2.2637 H       
  58 H58           -6.7651     0.6596    -1.3589 H       
  59 H59           -5.1661     0.1307     1.8700 H       
  60 H60           -6.7245     0.2905     1.0252 H       
  61 H61           -6.2796    -2.0757     1.5952 H       
  62 H62           -4.7423    -2.0084     0.6989 H       
@<TRIPOS>BOND
   1    1    2 2
   2    1    5 1
   3    1    6 1
   4    2    3 1
   5    3    4 2
   6    3   11 1
   7    4    5 1
   8    4   34 1
   9    5   35 1
  10    6    7 2
  11    6    8 am
  12    8   16 1
  13    8   36 1
  14    9   10 ar
  15    9   14 ar
  16    9   15 1
  17   10   11 ar
  18   10   37 1
  19   11   12 ar
  20   12   13 ar
  21   12   38 1
  22   13   14 ar
  23   13   39 1
  24   15   40 1
  25   15   41 1
  26   15   42 1
  27   16   17 ar
  28   16   21 ar
  29   17   18 ar
  30   17   31 1
  31   18   19 ar
  32   18   22 1
  33   19   20 ar
  34   19   43 1
  35   20   21 ar
  36   20   44 1
  37   21   45 1
  38   23   24 1
  39   23   28 1
  40   23   46 1
  41   23   47 1
  42   24   25 1
  43   24   48 1
  44   25   26 1
  45   25   49 1
  46   25   50 1
  47   26   27 1
  48   26   51 1
  49   26   52 1
  50   27   28 1
  51   27   53 1
  52   27   54 1
  53   28   29 1
  54   28   33 1
  55   29   30 1
  56   29   55 1
  57   29   56 1
  58   30   31 1
  59   30   57 1
  60   30   58 1
  61   31   32 1
  62   32   33 1
  63   32   59 1
  64   32   60 1
  65   33   61 1
  66   33   62 1

#	End of record

