#	Name: ASD01911343
#	Creating user name:	WinNT
#	Creation time:	15. 06. 2019 19:57

#	Modifying user name:	WinNT
#	Modification time:	15. 06. 2019 19:57

#	Program:	/corina/corina34_cracker 3.40 0067  02.08.2006

@<TRIPOS>MOLECULE
ASD01911343
  34   36    0    0    0
SMALL
NO_CHARGES


@<TRIPOS>ATOM
   1 C1            -0.0173     1.4278     0.0099 C.ar    
   2 C2             0.0021    -0.0041     0.0020 C.1     
   3 C3             0.0180    -1.1779    -0.0044 C.1     
   4 C4             0.0374    -2.6098    -0.0123 C.ar    
   5 N5            -1.1129    -3.2810    -0.0049 N.ar    
   6 C6            -1.1403    -4.5946    -0.0124 C.ar    
   7 C7             0.0524    -5.3256    -0.0293 C.ar    
   8 C8             1.2780    -4.6524    -0.0369 C.ar    
   9 C9             1.2648    -3.2818    -0.0335 C.ar    
  10 C10           -2.4509    -5.3383    -0.0018 C.3     
  11 C11           -2.3259    -6.6237    -0.8161 C.3     
  12 N12           -1.1656    -7.4028    -0.3923 N.am    
  13 C13           -0.0121    -6.7995    -0.0403 C.2     
  14 O14            0.9617    -7.4612     0.2634 O.2     
  15 C15           -1.2563    -8.8644    -0.3487 C.3     
  16 C16            1.1823     2.1472     0.0023 C.ar    
  17 C17            1.1546     3.5276     0.0095 C.ar    
  18 C18           -0.0552     4.1982     0.0242 C.ar    
  19 C19           -1.2461     3.4926     0.0318 C.ar    
  20 C20           -1.2353     2.1139     0.0194 C.ar    
  21 Cl21           2.7013     1.3070    -0.0155 Cl      
  22 H22            2.2100    -5.1979    -0.0488 H       
  23 H23            2.1912    -2.7268    -0.0392 H       
  24 H24           -2.7188    -5.5852     1.0255 H       
  25 H25           -3.2278    -4.7089    -0.4359 H       
  26 H26           -3.2271    -7.2218    -0.6810 H       
  27 H27           -2.2206    -6.3702    -1.8709 H       
  28 H28           -0.9559    -9.2759    -1.3123 H       
  29 H29           -0.5972    -9.2463     0.4309 H       
  30 H30           -2.2834    -9.1583    -0.1324 H       
  31 H31            2.0795     4.0851     0.0040 H       
  32 H32           -0.0707     5.2781     0.0301 H       
  33 H33           -2.1865     4.0236     0.0432 H       
  34 H34           -2.1656     1.5653     0.0253 H       
@<TRIPOS>BOND
   1    1    2 1
   2    1   16 ar
   3    1   20 ar
   4    2    3 3
   5    3    4 1
   6    4    5 ar
   7    4    9 ar
   8    5    6 ar
   9    6    7 ar
  10    6   10 1
  11    7    8 ar
  12    7   13 1
  13    8    9 ar
  14    8   22 1
  15    9   23 1
  16   10   11 1
  17   10   24 1
  18   10   25 1
  19   11   12 1
  20   11   26 1
  21   11   27 1
  22   12   13 am
  23   12   15 1
  24   13   14 2
  25   15   28 1
  26   15   29 1
  27   15   30 1
  28   16   17 ar
  29   16   21 1
  30   17   18 ar
  31   17   31 1
  32   18   19 ar
  33   18   32 1
  34   19   20 ar
  35   19   33 1
  36   20   34 1

#	End of record

