#	Name: ASD01816590
#	Creating user name:	WinNT
#	Creation time:	15. 06. 2019 19:35

#	Modifying user name:	WinNT
#	Modification time:	15. 06. 2019 19:35

#	Program:	/corina/corina34_cracker 3.40 0067  02.08.2006

@<TRIPOS>MOLECULE
ASD01816590
  63   68    0    0    0
SMALL
NO_CHARGES


@<TRIPOS>ATOM
   1 C1            -0.0167     1.3800     0.0096 C.ar    
   2 C2             0.0021    -0.0041     0.0020 C.ar    
   3 C3             1.1979    -0.6926    -0.0131 C.ar    
   4 C4             2.4035     0.0001    -0.0209 C.ar    
   5 C5             2.3866     1.4044    -0.0133 C.ar    
   6 C6             1.1719     2.0918     0.0021 C.ar    
   7 N7             3.6049    -0.6875    -0.0357 N.pl3   
   8 C8             4.7989    -0.0731    -0.0433 C.2     
   9 C9             4.9065     1.2952    -0.0375 C.2     
  10 C10            3.6761     2.1192    -0.0218 C.2     
  11 C11            6.0068     2.2543    -0.0425 C.2     
  12 N12            5.4384     3.4793    -0.0312 N.am    
  13 N13            4.0458     3.3680    -0.0189 N.2     
  14 C14            6.1439     4.6881    -0.0313 C.ar    
  15 O15            7.2003     2.0003    -0.0539 O.2     
  16 C16            3.5722    -2.1521    -0.0427 C.3     
  17 C17            3.5476    -2.6472    -1.4658 C.ar    
  18 C18            4.7354    -2.9003    -2.1279 C.ar    
  19 C19            4.7188    -3.3542    -3.4312 C.ar    
  20 C20            3.5025    -3.5575    -4.0799 C.ar    
  21 C21            2.3090    -3.3010    -3.4082 C.ar    
  22 C22            2.3373    -2.8522    -2.1033 C.ar    
  23 C23            5.9121     5.6295     0.9637 C.ar    
  24 C24            3.4783    -4.0450    -5.4813 C.ar    
  25 C25            7.0813     4.9468    -1.0229 C.ar    
  26 C26            7.7761     6.1405    -1.0199 C.ar    
  27 C27            7.5393     7.0775    -0.0310 C.ar    
  28 C28            6.6102     6.8209     0.9609 C.ar    
  29 C29            4.6663    -4.3039    -6.1612 C.ar    
  30 N30            4.6462    -4.7371    -7.4052 N.ar    
  31 C31            3.5156    -4.9421    -8.0527 C.ar    
  32 C32            2.2945    -4.7080    -7.4468 C.ar    
  33 C33            2.2632    -4.2575    -6.1384 C.ar    
  34 C34            3.5549    -5.4386    -9.4750 C.3     
  35 C35            4.8997     5.3509     2.0446 C.3     
  36 O36            1.1552     3.4500     0.0091 O.3     
  37 C37           -0.1258     4.0830     0.0248 C.3     
  38 H38           -0.9599     1.9061     0.0170 H       
  39 H39           -0.9292    -0.5510     0.0084 H       
  40 H40            1.1974    -1.7726    -0.0186 H       
  41 H41            5.6980    -0.6713    -0.0541 H       
  42 H42            4.4586    -2.5377     0.4609 H       
  43 H43            2.6791    -2.4981     0.4778 H       
  44 H44            5.6776    -2.7420    -1.6243 H       
  45 H45            5.6468    -3.5512    -3.9474 H       
  46 H46            1.3635    -3.4565    -3.9065 H       
  47 H47            1.4128    -2.6531    -1.5816 H       
  48 H48            7.2670     4.2151    -1.7953 H       
  49 H49            8.5054     6.3421    -1.7905 H       
  50 H50            8.0842     8.0100    -0.0307 H       
  51 H51            6.4273     7.5550     1.7317 H       
  52 H52            5.6123    -4.1476    -5.6642 H       
  53 H53            1.3752    -4.8788    -7.9874 H       
  54 H54            1.3239    -4.0665    -5.6408 H       
  55 H55            3.5465    -6.5285    -9.4797 H       
  56 H56            2.6837    -5.0662   -10.0140 H       
  57 H57            4.4628    -5.0801    -9.9601 H       
  58 H58            5.3897     4.8546     2.8822 H       
  59 H59            4.4627     6.2901     2.3839 H       
  60 H60            4.1143     4.7066     1.6495 H       
  61 H61           -0.6704     3.7788     0.9187 H       
  62 H62            0.0037     5.1653     0.0290 H       
  63 H63           -0.6879     3.7878    -0.8612 H       
@<TRIPOS>BOND
   1    1    2 ar
   2    1    6 ar
   3    1   38 1
   4    2    3 ar
   5    2   39 1
   6    3    4 ar
   7    3   40 1
   8    4    5 ar
   9    4    7 1
  10    5    6 ar
  11    5   10 1
  12    6   36 1
  13    7    8 1
  14    7   16 1
  15    8    9 2
  16    8   41 1
  17    9   10 1
  18    9   11 1
  19   10   13 2
  20   11   12 am
  21   11   15 2
  22   12   13 1
  23   12   14 1
  24   14   25 ar
  25   14   23 ar
  26   16   17 1
  27   16   42 1
  28   16   43 1
  29   17   18 ar
  30   17   22 ar
  31   18   19 ar
  32   18   44 1
  33   19   20 ar
  34   19   45 1
  35   20   21 ar
  36   20   24 1
  37   21   22 ar
  38   21   46 1
  39   22   47 1
  40   23   35 1
  41   23   28 ar
  42   24   29 ar
  43   24   33 ar
  44   25   26 ar
  45   25   48 1
  46   26   27 ar
  47   26   49 1
  48   27   28 ar
  49   27   50 1
  50   28   51 1
  51   29   30 ar
  52   29   52 1
  53   30   31 ar
  54   31   32 ar
  55   31   34 1
  56   32   33 ar
  57   32   53 1
  58   33   54 1
  59   34   55 1
  60   34   56 1
  61   34   57 1
  62   35   58 1
  63   35   59 1
  64   35   60 1
  65   36   37 1
  66   37   61 1
  67   37   62 1
  68   37   63 1

#	End of record

