#	Name: ASD01903104
#	Creating user name:	WinNT
#	Creation time:	15. 06. 2019 19:54

#	Modifying user name:	WinNT
#	Modification time:	15. 06. 2019 19:54

#	Program:	/corina/corina34_cracker 3.40 0067  02.08.2006

@<TRIPOS>MOLECULE
ASD01903104
  33   36    0    0    0
SMALL
NO_CHARGES


@<TRIPOS>ATOM
   1 C1            -0.0160     1.2944     0.0210 C.2     
   2 N2             0.0004    -0.0032     0.0040 N.2     
   3 C3            -1.1729    -0.6193     0.0260 C.2     
   4 C4            -2.2469     0.1860     0.0636 C.2     
   5 S5            -1.6842     1.8558     0.0782 S.3     
   6 C6            -1.2919    -2.1001     0.0098 C.2     
   7 N7             1.1051     2.1111     0.0028 N.pl3   
   8 C8            -0.2599    -2.9907    -0.0278 C.2     
   9 N9            -0.7915    -4.2316    -0.0301 N.pl3   
  10 N10           -2.1859    -4.1093     0.0069 N.2     
  11 C11           -2.4904    -2.8386     0.0365 C.2     
  12 C12            0.9587     3.4915    -0.0934 C.ar    
  13 N13           -0.2451     4.0127    -0.2729 N.ar    
  14 C14           -0.4275     5.3161    -0.3689 C.ar    
  15 C15            0.6391     6.1883    -0.2846 C.ar    
  16 C16            1.9186     5.6821    -0.0965 C.ar    
  17 C17            2.0779     4.3120     0.0057 C.ar    
  18 C18            1.2080    -2.6513    -0.0612 C.3     
  19 C19            2.0789    -3.1679     1.0858 C.3     
  20 C20            2.1927    -3.7969    -0.3043 C.3     
  21 H21           -3.2780    -0.1346     0.0852 H       
  22 H22            1.9910     1.7200     0.0573 H       
  23 H23           -0.2938    -5.0638    -0.0536 H       
  24 H24           -3.4882    -2.4265     0.0689 H       
  25 H25           -1.4242     5.7054    -0.5155 H       
  26 H26            0.4802     7.2536    -0.3646 H       
  27 H27            2.7695     6.3436    -0.0277 H       
  28 H28            3.0587     3.8845     0.1527 H       
  29 H29            1.4557    -1.6766    -0.4816 H       
  30 H30            2.8997    -2.5332     1.4197 H       
  31 H31            1.5901    -3.7533     1.8646 H       
  32 H32            1.7787    -4.7961    -0.4400 H       
  33 H33            3.0884    -3.5760    -0.8849 H       
@<TRIPOS>BOND
   1    1    2 2
   2    1    7 1
   3    1    5 1
   4    2    3 1
   5    3    4 2
   6    3    6 1
   7    4    5 1
   8    4   21 1
   9    6    8 2
  10    6   11 1
  11    7   12 1
  12    7   22 1
  13    8    9 1
  14    8   18 1
  15    9   10 1
  16    9   23 1
  17   10   11 2
  18   11   24 1
  19   12   13 ar
  20   12   17 ar
  21   13   14 ar
  22   14   15 ar
  23   14   25 1
  24   15   16 ar
  25   15   26 1
  26   16   17 ar
  27   16   27 1
  28   17   28 1
  29   18   19 1
  30   18   20 1
  31   18   29 1
  32   19   20 1
  33   19   30 1
  34   19   31 1
  35   20   32 1
  36   20   33 1

#	End of record

