#	Name: ASD01200310
#	Creating user name:	WinNT
#	Creation time:	15. 06. 2019 19:08

#	Modifying user name:	WinNT
#	Modification time:	15. 06. 2019 19:08

#	Program:	/corina/corina34_cracker 3.40 0067  02.08.2006

@<TRIPOS>MOLECULE
ASD01200310
  59   61    0    0    0
SMALL
NO_CHARGES


@<TRIPOS>ATOM
   1 C1            -0.0169     1.3922     0.0107 C.ar    
   2 C2             0.0018    -0.0039    -0.0058 C.ar    
   3 C3            -1.1567    -0.7209     0.0022 C.ar    
   4 C4            -2.3885    -0.0536     0.0274 C.ar    
   5 C5            -2.4138     1.3624     0.0443 C.ar    
   6 C6            -1.2123     2.0783     0.0414 C.ar    
   7 N7            -3.5544    -0.7184     0.0356 N.ar    
   8 C8            -4.6920    -0.0664     0.0589 C.ar    
   9 N9            -4.7650     1.2553     0.0754 N.ar    
  10 C10           -3.6741     2.0092     0.0692 C.ar    
  11 O11            1.1547     2.0813     0.0022 O.3     
  12 N12           -3.7639     3.3859     0.0862 N.pl3   
  13 C13           -5.0196     4.0054     0.1103 C.2     
  14 N14           -5.2409     5.2989     0.1276 N.2     
  15 N15           -6.6263     5.5047     0.1484 N.pl3   
  16 C16           -7.2287     4.2969     0.1431 C.2     
  17 C17           -6.2623     3.3513     0.1140 C.2     
  18 C18           -7.3031     6.8038     0.1723 C.3     
  19 P19           -7.6073     7.3620    -1.5362 P.3     
  20 O20           -6.3311     7.3751    -2.2856 O.2     
  21 C21            1.0698     3.5041    -0.1003 C.3     
  22 C22            2.3649     4.0501    -0.7050 C.3     
  23 C23            0.8642     4.1044     1.2919 C.3     
  24 O24            3.4508     3.7996     0.1895 O.3     
  25 C25            4.7138     4.2728    -0.2828 C.3     
  26 O26           -8.6404     6.3567    -2.2533 O.3     
  27 C27           -9.9965     5.3577    -3.9864 C.3     
  28 C28           -9.0003     6.4636    -3.6321 C.3     
  29 O29           -8.2313     8.8460    -1.5129 O.3     
  30 C30           -9.0754    10.9620    -2.3194 C.3     
  31 C31           -8.4845     9.6025    -2.6984 C.3     
  32 H32            0.9487    -0.5231    -0.0256 H       
  33 H33           -1.1257    -1.8004    -0.0112 H       
  34 H34           -1.2210     3.1582     0.0542 H       
  35 H35           -5.6111    -0.6335     0.0645 H       
  36 H36           -2.9573     3.9247     0.0814 H       
  37 H37           -8.2936     4.1174     0.1556 H       
  38 H38           -6.4184     2.2827     0.1027 H       
  39 H39           -8.2531     6.7089     0.6982 H       
  40 H40           -6.6747     7.5314     0.6858 H       
  41 H41            0.2288     3.7728    -0.7396 H       
  42 H42            2.5575     3.5564    -1.6575 H       
  43 H43            2.2666     5.1237    -0.8655 H       
  44 H44            0.7995     5.1897     1.2137 H       
  45 H45           -0.0584     3.7155     1.7227 H       
  46 H46            1.7052     3.8357     1.9312 H       
  47 H47            5.4854     4.0444     0.4525 H       
  48 H48            4.9552     3.7837    -1.2265 H       
  49 H49            4.6642     5.3510    -0.4346 H       
  50 H50           -9.5393     4.3850    -3.8047 H       
  51 H51          -10.8887     5.4609    -3.3689 H       
  52 H52          -10.2710     5.4393    -5.0381 H       
  53 H53           -9.4575     7.4363    -3.8139 H       
  54 H54           -8.1081     6.3604    -4.2496 H       
  55 H55           -9.2685    11.5391    -3.2237 H       
  56 H56          -10.0090    10.8137    -1.7767 H       
  57 H57           -8.3697    11.5016    -1.6878 H       
  58 H58           -7.5509     9.7508    -3.2411 H       
  59 H59           -9.1901     9.0629    -3.3300 H       
@<TRIPOS>BOND
   1    1    2 ar
   2    1   11 1
   3    1    6 ar
   4    2    3 ar
   5    2   32 1
   6    3    4 ar
   7    3   33 1
   8    4    5 ar
   9    4    7 ar
  10    5    6 ar
  11    5   10 ar
  12    6   34 1
  13    7    8 ar
  14    8    9 ar
  15    8   35 1
  16    9   10 ar
  17   10   12 1
  18   11   21 1
  19   12   13 1
  20   12   36 1
  21   13   14 2
  22   13   17 1
  23   14   15 1
  24   15   16 1
  25   15   18 1
  26   16   17 2
  27   16   37 1
  28   17   38 1
  29   18   19 1
  30   18   39 1
  31   18   40 1
  32   19   20 2
  33   19   26 1
  34   19   29 1
  35   21   22 1
  36   21   23 1
  37   21   41 1
  38   22   24 1
  39   22   42 1
  40   22   43 1
  41   23   44 1
  42   23   45 1
  43   23   46 1
  44   24   25 1
  45   25   47 1
  46   25   48 1
  47   25   49 1
  48   26   28 1
  49   27   28 1
  50   27   50 1
  51   27   51 1
  52   27   52 1
  53   28   53 1
  54   28   54 1
  55   29   31 1
  56   30   31 1
  57   30   55 1
  58   30   56 1
  59   30   57 1
  60   31   58 1
  61   31   59 1

#	End of record

