#	Name: ASD08070177
#	Creating user name:	WinNT
#	Creation time:	15. 06. 2019 21:14

#	Modifying user name:	WinNT
#	Modification time:	15. 06. 2019 21:14

#	Program:	/corina/corina34_cracker 3.40 0067  02.08.2006

@<TRIPOS>MOLECULE
ASD08070177
  43   44    0    0    0
SMALL
NO_CHARGES


@<TRIPOS>ATOM
   1 C1            -0.0167     1.3791     0.0096 C.ar    
   2 C2             0.0021    -0.0041     0.0020 C.ar    
   3 C3             1.2091    -0.6854    -0.0127 C.ar    
   4 C4             2.4138     0.0323    -0.0203 C.ar    
   5 C5             2.3837     1.4343    -0.0130 C.ar    
   6 C6             1.1661     2.0965     0.0022 C.ar    
   7 C7             3.7016    -0.6814    -0.0354 C.2     
   8 N8             4.3017    -1.0135     1.1248 N.am    
   9 O9             3.5426     2.1403    -0.0202 O.3     
  10 O10            4.2239    -0.9711    -1.0949 O.2     
  11 C11            6.7245    -0.7132     0.9783 C.3     
  12 C12            5.5831    -1.7235     1.1097 C.3     
  13 C13            5.7113    -1.5448     3.5985 C.3     
  14 C14            5.7456    -2.5101     2.4119 C.3     
  15 Cl15           1.1253     3.8320     0.0113 Cl      
  16 Cl16          -1.4911    -0.8895     0.0115 Cl      
  17 O17            1.2249    -2.0424    -0.0192 O.3     
  18 C18            6.6902     0.2521     2.1649 C.3     
  19 C19            6.8528    -0.5344     3.4671 C.3     
  20 C20            4.6042    -3.5204     2.5433 C.3     
  21 C21            4.0848     2.4842    -1.2969 C.3     
  22 C22            1.2203    -2.6851    -1.2955 C.3     
  23 H23           -0.9613     1.9026     0.0169 H       
  24 H24            3.8852    -0.7824     1.9697 H       
  25 H25            7.6778    -1.2415     0.9671 H       
  26 H26            6.6087    -0.1528     0.0506 H       
  27 H27            5.6074    -2.4112     0.2644 H       
  28 H28            4.7580    -1.0165     3.6097 H       
  29 H29            5.8271    -2.1051     4.5262 H       
  30 H30            6.6989    -3.0384     2.4007 H       
  31 H31            7.5034     0.9719     2.0713 H       
  32 H32            5.7369     0.7804     2.1761 H       
  33 H33            6.8284     0.1533     4.3124 H       
  34 H34            7.8061    -1.0627     3.4559 H       
  35 H35            3.6508    -2.9921     2.5545 H       
  36 H36            4.6286    -4.2081     1.6980 H       
  37 H37            4.7200    -4.0808     3.4711 H       
  38 H38            5.0090     3.0456    -1.1598 H       
  39 H39            4.2924     1.5746    -1.8604 H       
  40 H40            3.3665     3.0947    -1.8441 H       
  41 H41            0.3217    -2.4000    -1.8427 H       
  42 H42            2.1015    -2.3792    -1.8595 H       
  43 H43            1.2343    -3.7663    -1.1579 H       
@<TRIPOS>BOND
   1    1    2 ar
   2    1    6 ar
   3    1   23 1
   4    2    3 ar
   5    2   16 1
   6    3    4 ar
   7    3   17 1
   8    4    5 ar
   9    4    7 1
  10    5    6 ar
  11    5    9 1
  12    6   15 1
  13    7    8 am
  14    7   10 2
  15    8   12 1
  16    8   24 1
  17    9   21 1
  18   11   12 1
  19   11   18 1
  20   11   25 1
  21   11   26 1
  22   12   14 1
  23   12   27 1
  24   13   14 1
  25   13   19 1
  26   13   28 1
  27   13   29 1
  28   14   20 1
  29   14   30 1
  30   17   22 1
  31   18   19 1
  32   18   31 1
  33   18   32 1
  34   19   33 1
  35   19   34 1
  36   20   35 1
  37   20   36 1
  38   20   37 1
  39   21   38 1
  40   21   39 1
  41   21   40 1
  42   22   41 1
  43   22   42 1
  44   22   43 1

#	End of record

