#	Name: ASD01410702
#	Creating user name:	WinNT
#	Creation time:	15. 06. 2019 19:18

#	Modifying user name:	WinNT
#	Modification time:	15. 06. 2019 19:18

#	Program:	/corina/corina34_cracker 3.40 0067  02.08.2006

@<TRIPOS>MOLECULE
ASD01410702
  86   91    0    0    0
SMALL
NO_CHARGES


@<TRIPOS>ATOM
   1 N1            -0.0203     1.6452     0.0111 N.am    
   2 C2            -3.0372     2.3280    -1.7137 C.3     
   3 N3            -3.3877     0.5891    -4.9611 N.am    
   4 S4             0.0021    -0.0041     0.0020 S.o2    
   5 O5            -0.2663    -0.4076    -1.3310 O.2     
   6 N6             1.5500    -0.5039     0.3747 N.am    
   7 O7            -0.8159    -0.4108     1.0991 O.2     
   8 C8             2.5153    -0.4684    -0.5415 C.2     
   9 O9             3.5960    -0.8100    -0.0522 O.2     
  10 C10            2.6560    -0.1633    -1.9479 C.ar    
  11 C11            3.8539     0.4891    -2.2968 C.ar    
  12 C12            4.1404     0.9236    -3.5536 C.ar    
  13 C13            3.1527     0.6953    -4.5209 C.ar    
  14 C14            1.9834    -0.0533    -4.2263 C.ar    
  15 C15            1.7365    -0.5134    -2.9386 C.ar    
  16 C16            3.0546     1.1190    -5.8572 C.2     
  17 C17            1.9083     0.6176    -6.3748 C.2     
  18 N18            1.2771    -0.1383    -5.3938 N.pl3   
  19 C19            4.0693     2.0047    -6.5384 C.3     
  20 C20            4.1645     3.3377    -5.7933 C.3     
  21 C21            5.4356     1.3162    -6.5285 C.3     
  22 C22            6.4642     2.2141    -7.2190 C.3     
  23 C23            6.5594     3.5470    -6.4739 C.3     
  24 C24            5.1931     4.2355    -6.4838 C.3     
  25 C25            1.3667     0.8202    -7.7281 C.ar    
  26 C26           -0.0084     0.9584    -7.9629 C.ar    
  27 C27           -1.0191     0.8793    -6.9145 C.2     
  28 C28           -1.0870     0.0860    -5.8711 C.2     
  29 C29            0.0406    -0.8970    -5.6062 C.3     
  30 C30           -2.1577     0.0331    -4.9056 C.2     
  31 O31           -1.9259    -0.6349    -3.8767 O.2     
  32 C32            2.2562     0.8356    -8.8120 C.ar    
  33 C33            1.8050     1.0479   -10.0950 C.ar    
  34 C34            0.4448     1.2197   -10.3310 C.ar    
  35 C35           -0.4521     1.1641    -9.2814 C.ar    
  36 O36           -0.0056     1.4445   -11.5929 O.3     
  37 C37            0.9738     1.4925   -12.6324 C.3     
  38 C38           -3.7050     1.3184    -2.6502 C.3     
  39 C39           -3.5306     1.7970    -4.0909 C.3     
  40 C40           -2.4199     1.5555    -0.5358 C.3     
  41 C41           -1.2789     2.3907     0.0332 C.3     
  42 C42            1.2396     2.3966     0.0031 C.3     
  43 C43           -4.5133     0.1021    -5.7558 C.3     
  44 C44           -2.0801     1.9342    -7.0524 C.3     
  45 H45           -2.2574     2.8656    -2.2488 H       
  46 H46           -3.7824     3.0305    -1.3393 H       
  47 H47            1.7534    -0.8301     1.2824 H       
  48 H48            4.5881     0.6511    -1.5206 H       
  49 H49            5.0756     1.4119    -3.7868 H       
  50 H50            0.8825    -1.1419    -2.7340 H       
  51 H51            3.7609     2.1853    -7.5681 H       
  52 H52            3.1911     3.8282    -5.8004 H       
  53 H53            4.4729     3.1571    -4.7636 H       
  54 H54            5.7440     1.1356    -5.4987 H       
  55 H55            5.3677     0.3666    -7.0593 H       
  56 H56            7.4375     1.7235    -7.2119 H       
  57 H57            6.1557     2.3946    -8.2487 H       
  58 H58            6.8678     3.3664    -5.4442 H       
  59 H59            7.2922     4.1867    -6.9658 H       
  60 H60            4.8847     4.4161    -7.5135 H       
  61 H61            5.2609     5.1851    -5.9530 H       
  62 H62            0.1445    -1.5404    -6.4750 H       
  63 H63           -0.1938    -1.4811    -4.7250 H       
  64 H64            3.3089     0.6480    -8.6596 H       
  65 H65            2.5078     1.0823   -10.9152 H       
  66 H66           -1.5047     1.2630    -9.5013 H       
  67 H67            0.4816     1.6780   -13.5871 H       
  68 H68            1.6826     2.2948   -12.4271 H       
  69 H69            1.5044     0.5413   -12.6759 H       
  70 H70           -3.2419     0.3426    -2.5235 H       
  71 H71           -4.7669     1.2489    -2.4123 H       
  72 H72           -2.6339     2.4086    -4.1748 H       
  73 H73           -4.4062     2.3643    -4.4030 H       
  74 H74           -3.1813     1.4025     0.2343 H       
  75 H75           -2.0587     0.5915    -0.8795 H       
  76 H76           -1.5100     2.6685     1.0643 H       
  77 H77           -1.1662     3.3006    -0.5598 H       
  78 H78            2.0780     1.7001    -0.0087 H       
  79 H79            1.2800     3.0288    -0.8839 H       
  80 H80            1.2970     3.0193     0.8959 H       
  81 H81           -4.2111    -0.7891    -6.3058 H       
  82 H82           -5.3452    -0.1431    -5.0955 H       
  83 H83           -4.8232     0.8753    -6.4589 H       
  84 H84           -1.8679     2.5510    -7.9257 H       
  85 H85           -3.0530     1.4575    -7.1719 H       
  86 H86           -2.0891     2.5594    -6.1595 H       
@<TRIPOS>BOND
   1    1    4 am
   2    1   42 1
   3    1   41 1
   4    2   38 1
   5    2   40 1
   6    2   45 1
   7    2   46 1
   8    3   30 am
   9    3   43 1
  10    3   39 1
  11    4    5 2
  12    4    6 am
  13    4    7 2
  14    6    8 am
  15    6   47 1
  16    8    9 2
  17    8   10 1
  18   10   11 ar
  19   10   15 ar
  20   11   12 ar
  21   11   48 1
  22   12   13 ar
  23   12   49 1
  24   13   14 ar
  25   13   16 1
  26   14   15 ar
  27   14   18 1
  28   15   50 1
  29   16   17 2
  30   16   19 1
  31   17   18 1
  32   17   25 1
  33   18   29 1
  34   19   20 1
  35   19   21 1
  36   19   51 1
  37   20   24 1
  38   20   52 1
  39   20   53 1
  40   21   22 1
  41   21   54 1
  42   21   55 1
  43   22   23 1
  44   22   56 1
  45   22   57 1
  46   23   24 1
  47   23   58 1
  48   23   59 1
  49   24   60 1
  50   24   61 1
  51   25   26 ar
  52   25   32 ar
  53   26   27 1
  54   26   35 ar
  55   27   28 2
  56   27   44 1
  57   28   29 1
  58   28   30 1
  59   29   62 1
  60   29   63 1
  61   30   31 2
  62   32   33 ar
  63   32   64 1
  64   33   34 ar
  65   33   65 1
  66   34   35 ar
  67   34   36 1
  68   35   66 1
  69   36   37 1
  70   37   67 1
  71   37   68 1
  72   37   69 1
  73   38   39 1
  74   38   70 1
  75   38   71 1
  76   39   72 1
  77   39   73 1
  78   40   41 1
  79   40   74 1
  80   40   75 1
  81   41   76 1
  82   41   77 1
  83   42   78 1
  84   42   79 1
  85   42   80 1
  86   43   81 1
  87   43   82 1
  88   43   83 1
  89   44   84 1
  90   44   85 1
  91   44   86 1

#	End of record

