#	Name: ASD01880872
#	Creating user name:	WinNT
#	Creation time:	15. 06. 2019 19:41

#	Modifying user name:	WinNT
#	Modification time:	15. 06. 2019 19:41

#	Program:	/corina/corina34_cracker 3.40 0067  02.08.2006

@<TRIPOS>MOLECULE
ASD01880872
  55   58    0    0    0
SMALL
NO_CHARGES


@<TRIPOS>ATOM
   1 N1            -0.0195     1.3838    -0.1101 N.ar    
   2 C2            -0.0482     0.0627    -0.0447 C.ar    
   3 N3             1.0530    -0.6466     0.1431 N.ar    
   4 C4             2.2273    -0.0513     0.2719 C.ar    
   5 C5             2.2945     1.3317     0.2080 C.ar    
   6 C6             1.1215     2.0427     0.0109 C.ar    
   7 C7             3.6136     2.0463     0.3509 C.3     
   8 O8             4.6415     1.0960     0.6379 O.3     
   9 C9             5.8998     1.5787     0.7973 C.ar    
  10 C10            6.9480     0.7077     1.0785 C.ar    
  11 C11            8.2204     1.1973     1.2391 C.ar    
  12 C12            8.4713     2.5684     1.1218 C.ar    
  13 C13            7.4150     3.4388     0.8388 C.ar    
  14 C14            6.1413     2.9417     0.6738 C.ar    
  15 C15            9.5468     0.5462     1.5423 C.3     
  16 N16           10.5350     1.6300     1.5848 N.am    
  17 C17            9.9103     2.7949     1.3416 C.2     
  18 O18           10.4553     3.8812     1.3076 O.2     
  19 C19            7.6702     4.9184     0.7101 C.3     
  20 C20            1.1453     3.5475    -0.0658 C.3     
  21 C21            1.1959     3.9762    -1.5097 C.ar    
  22 C22            0.0277     4.0781    -2.2417 C.ar    
  23 C23            0.0741     4.4713    -3.5662 C.ar    
  24 C24            1.2886     4.7630    -4.1585 C.ar    
  25 C25            2.4567     4.6619    -3.4262 C.ar    
  26 C26            2.4099     4.2730    -2.1005 C.ar    
  27 O27           -1.2340    -0.5795    -0.1726 O.3     
  28 C28           -1.2108    -2.0062    -0.0946 C.3     
  29 C29           12.7076     1.2474     0.5288 C.3     
  30 C30           11.9669     1.4689     1.8491 C.3     
  31 H31            3.1226    -0.6357     0.4253 H       
  32 H32            3.8480     2.5655    -0.5784 H       
  33 H33            3.5492     2.7687     1.1645 H       
  34 H34            6.7606    -0.3519     1.1707 H       
  35 H35            5.3255     3.6148     0.4548 H       
  36 H36            9.5041     0.0401     2.5068 H       
  37 H37            9.8036    -0.1645     0.7567 H       
  38 H38            7.9046     5.1578    -0.3271 H       
  39 H39            6.7811     5.4686     1.0180 H       
  40 H40            8.5096     5.1990     1.3464 H       
  41 H41            0.2462     3.9494     0.4012 H       
  42 H42            2.0251     3.9241     0.4560 H       
  43 H43           -0.9212     3.8502    -1.7790 H       
  44 H44           -0.8385     4.5502    -4.1383 H       
  45 H45            1.3249     5.0694    -5.1934 H       
  46 H46            3.4055     4.8895    -3.8890 H       
  47 H47            3.3225     4.1940    -1.5283 H       
  48 H48           -0.8159    -2.3107     0.8746 H       
  49 H49           -2.2231    -2.3930    -0.2123 H       
  50 H50           -0.5758    -2.4031    -0.8867 H       
  51 H51           13.7730     1.1276     0.7255 H       
  52 H52           12.3245     0.3497     0.0435 H       
  53 H53           12.5529     2.1071    -0.1232 H       
  54 H54           12.3500     2.3666     2.3344 H       
  55 H55           12.1216     0.6093     2.5012 H       
@<TRIPOS>BOND
   1    1    2 ar
   2    1    6 ar
   3    2    3 ar
   4    2   27 1
   5    3    4 ar
   6    4    5 ar
   7    4   31 1
   8    5    6 ar
   9    5    7 1
  10    6   20 1
  11    7    8 1
  12    7   32 1
  13    7   33 1
  14    8    9 1
  15    9   10 ar
  16    9   14 ar
  17   10   11 ar
  18   10   34 1
  19   11   12 ar
  20   11   15 1
  21   12   13 ar
  22   12   17 1
  23   13   14 ar
  24   13   19 1
  25   14   35 1
  26   15   16 1
  27   15   36 1
  28   15   37 1
  29   16   17 am
  30   16   30 1
  31   17   18 2
  32   19   38 1
  33   19   39 1
  34   19   40 1
  35   20   21 1
  36   20   41 1
  37   20   42 1
  38   21   22 ar
  39   21   26 ar
  40   22   23 ar
  41   22   43 1
  42   23   24 ar
  43   23   44 1
  44   24   25 ar
  45   24   45 1
  46   25   26 ar
  47   25   46 1
  48   26   47 1
  49   27   28 1
  50   28   48 1
  51   28   49 1
  52   28   50 1
  53   29   30 1
  54   29   51 1
  55   29   52 1
  56   29   53 1
  57   30   54 1
  58   30   55 1

#	End of record

