#	Name: ASD01510085
#	Creating user name:	WinNT
#	Creation time:	15. 06. 2019 19:21

#	Modifying user name:	WinNT
#	Modification time:	15. 06. 2019 19:21

#	Program:	/corina/corina34_cracker 3.40 0067  02.08.2006

@<TRIPOS>MOLECULE
ASD01510085
  53   56    0    0    0
SMALL
NO_CHARGES


@<TRIPOS>ATOM
   1 C1            -0.0074     1.4646    -0.0236 C.3     
   2 N2             0.0122    -0.0043    -0.0303 N.3     
   3 C3             0.7111    -0.5270     1.1520 C.3     
   4 C4             0.6405    -2.0559     1.1485 C.3     
   5 N5             1.2470    -2.5689    -0.0878 N.3     
   6 C6             0.5481    -2.0461    -1.2702 C.3     
   7 C7             0.6187    -0.5173    -1.2667 C.3     
   8 C8             1.2655    -3.9554    -0.0941 C.ar    
   9 N9             1.7796    -4.5886    -1.1376 N.ar    
  10 C10            1.8142    -5.9102    -1.1786 C.ar    
  11 C11            2.4016    -6.6221    -2.3700 C.3     
  12 C12            1.3012    -6.6347    -0.1063 C.ar    
  13 C13            0.7692    -5.9339     0.9725 C.ar    
  14 N14            0.7734    -4.6115     0.9458 N.ar    
  15 C15            0.2016    -6.6720     2.1575 C.3     
  16 S16            1.3242    -8.3965    -0.1146 S.3     
  17 C17            2.8890    -8.6856     0.6421 C.ar    
  18 N18            3.6288    -7.6503     1.0127 N.ar    
  19 C19            4.8102    -7.8281     1.5844 C.ar    
  20 C20            5.2729    -9.1131     1.7949 C.ar    
  21 C21            4.4715   -10.1837     1.3940 C.ar    
  22 N22            3.2946    -9.9330     0.8313 N.ar    
  23 N23            4.8962   -11.4922     1.5858 N.am    
  24 C24            4.0731   -12.5180     1.2912 C.2     
  25 O25            2.9267   -12.2986     0.9468 O.2     
  26 C26            4.5587   -13.8979     1.3858 C.2     
  27 C27            3.8338   -15.0240     1.1174 C.2     
  28 C28            4.6881   -16.1156     1.3371 C.2     
  29 C29            5.8819   -15.6147     1.7250 C.2     
  30 O30            5.8017   -14.2779     1.7474 O.3     
  31 H31            1.0153     1.8416    -0.0271 H       
  32 H32           -0.5305     1.8250    -0.9094 H       
  33 H33           -0.5216     1.8170     0.8705 H       
  34 H34            1.7540    -0.2111     1.1272 H       
  35 H35            0.2358    -0.1431     2.0547 H       
  36 H36            1.1831    -2.4469     2.0092 H       
  37 H37           -0.4014    -2.3720     1.2008 H       
  38 H38            1.0233    -2.4301    -2.1728 H       
  39 H39           -0.4949    -2.3621    -1.2453 H       
  40 H40            0.0760    -0.1262    -2.1273 H       
  41 H41            1.6605    -0.2012    -1.3190 H       
  42 H42            3.4673    -6.7834    -2.2077 H       
  43 H43            1.9043    -7.5832    -2.5004 H       
  44 H44            2.2580    -6.0145    -3.2634 H       
  45 H45            0.9890    -6.8396     2.8923 H       
  46 H46           -0.5949    -6.0792     2.6073 H       
  47 H47           -0.1998    -7.6310     1.8299 H       
  48 H48            5.4058    -6.9779     1.8825 H       
  49 H49            6.2329    -9.2853     2.2587 H       
  50 H50            5.7853   -11.6678     1.9318 H       
  51 H51            2.8029   -15.0663     0.7984 H       
  52 H52            4.4384   -17.1596     1.2188 H       
  53 H53            6.7578   -16.1963     1.9716 H       
@<TRIPOS>BOND
   1    1    2 1
   2    1   31 1
   3    1   32 1
   4    1   33 1
   5    2    3 1
   6    2    7 1
   7    3    4 1
   8    3   34 1
   9    3   35 1
  10    4    5 1
  11    4   36 1
  12    4   37 1
  13    5    6 1
  14    5    8 1
  15    6    7 1
  16    6   38 1
  17    6   39 1
  18    7   40 1
  19    7   41 1
  20    8    9 ar
  21    8   14 ar
  22    9   10 ar
  23   10   11 1
  24   10   12 ar
  25   11   42 1
  26   11   43 1
  27   11   44 1
  28   12   13 ar
  29   12   16 1
  30   13   14 ar
  31   13   15 1
  32   15   45 1
  33   15   46 1
  34   15   47 1
  35   16   17 1
  36   17   18 ar
  37   17   22 ar
  38   18   19 ar
  39   19   20 ar
  40   19   48 1
  41   20   21 ar
  42   20   49 1
  43   21   22 ar
  44   21   23 1
  45   23   24 am
  46   23   50 1
  47   24   25 2
  48   24   26 1
  49   26   27 2
  50   26   30 1
  51   27   28 1
  52   27   51 1
  53   28   29 2
  54   28   52 1
  55   29   30 1
  56   29   53 1

#	End of record

