#	Name: ASD01918582
#	Creating user name:	WinNT
#	Creation time:	15. 06. 2019 20:11

#	Modifying user name:	WinNT
#	Modification time:	15. 06. 2019 20:11

#	Program:	/corina/corina34_cracker 3.40 0067  02.08.2006

@<TRIPOS>MOLECULE
ASD01918582
  38   40    0    0    0
SMALL
NO_CHARGES


@<TRIPOS>ATOM
   1 C1            -0.0490     1.5809    -0.1160 C.3     
   2 C2            -0.0440     0.0742    -0.1480 C.ar    
   3 C3            -0.0268    -0.5814    -1.3658 C.ar    
   4 C4            -0.0223    -1.9734    -1.3899 C.ar    
   5 O5            -0.0050    -2.6484    -2.5676 O.3     
   6 C6             0.1268    -4.0696    -2.4989 C.3     
   7 C7            -1.1720    -4.8253    -2.8258 C.3     
   8 C8            -0.7230    -4.8013    -4.2964 C.3     
   9 C9             0.7189    -4.6956    -3.7726 C.3     
  10 C10           -0.0354    -2.6562    -0.1767 C.ar    
  11 C11           -0.0525    -1.9262     1.0076 C.ar    
  12 N12           -0.0508    -0.5983     0.9833 N.ar    
  13 C13           -0.0666    -2.6365     2.3075 C.2     
  14 O14           -0.0633    -3.8513     2.3361 O.2     
  15 N15           -0.0832    -1.9354     3.4584 N.am    
  16 C16           -0.2040    -2.5996     4.6770 C.ar    
  17 C17           -0.3272    -1.8665     5.8517 C.ar    
  18 C18           -0.4469    -2.5389     7.0554 C.ar    
  19 C19           -0.4391    -3.9268     7.0422 C.ar    
  20 C20           -0.3132    -4.5909     5.8377 C.ar    
  21 N21           -0.2058    -3.9232     4.7052 N.ar    
  22 H22            0.9774     1.9473    -0.1003 H       
  23 H23           -0.5571     1.9614    -1.0021 H       
  24 H24           -0.5709     1.9236     0.7774 H       
  25 H25           -0.0173    -0.0195    -2.2880 H       
  26 H26            0.6102    -4.4060    -1.5817 H       
  27 H27           -1.2137    -5.8271    -2.3983 H       
  28 H28           -2.0747    -4.2447    -2.6354 H       
  29 H29           -0.9267    -5.7296    -4.8303 H       
  30 H30           -1.0559    -3.9173    -4.8403 H       
  31 H31            1.3428    -4.0104    -4.3465 H       
  32 H32            1.1942    -5.6619    -3.6039 H       
  33 H33           -0.0328    -3.7360    -0.1552 H       
  34 H34           -0.0109    -0.9683     3.4382 H       
  35 H35           -0.3292    -0.7868     5.8254 H       
  36 H36           -0.5438    -1.9960     7.9840 H       
  37 H37           -0.5303    -4.4817     7.9642 H       
  38 H38           -0.3062    -5.6708     5.8225 H       
@<TRIPOS>BOND
   1    1    2 1
   2    1   22 1
   3    1   23 1
   4    1   24 1
   5    2   12 ar
   6    2    3 ar
   7    3    4 ar
   8    3   25 1
   9    4    5 1
  10    4   10 ar
  11    5    6 1
  12    6    9 1
  13    6    7 1
  14    6   26 1
  15    7    8 1
  16    7   27 1
  17    7   28 1
  18    8    9 1
  19    8   29 1
  20    8   30 1
  21    9   31 1
  22    9   32 1
  23   10   11 ar
  24   10   33 1
  25   11   12 ar
  26   11   13 1
  27   13   14 2
  28   13   15 am
  29   15   16 1
  30   15   34 1
  31   16   21 ar
  32   16   17 ar
  33   17   18 ar
  34   17   35 1
  35   18   19 ar
  36   18   36 1
  37   19   20 ar
  38   19   37 1
  39   20   21 ar
  40   20   38 1

#	End of record

