#	Name: ASD05420008
#	Creating user name:	WinNT
#	Creation time:	15. 06. 2019 20:59

#	Modifying user name:	WinNT
#	Modification time:	15. 06. 2019 20:59

#	Program:	/corina/corina34_cracker 3.40 0067  02.08.2006

@<TRIPOS>MOLECULE
ASD05420008
  40   41    0    0    0
SMALL
NO_CHARGES


@<TRIPOS>ATOM
   1 C1            -0.2548     0.7243     1.1065 C.2     
   2 N2             0.0021    -0.0041     0.0020 N.am    
   3 O3             0.5281     0.7154     2.0360 O.2     
   4 O4            -1.3764     1.4664     1.1780 O.3     
   5 C5             1.2233    -0.6898    -0.1194 C.ar    
   6 C6             1.3182    -2.0218     0.2805 C.ar    
   7 C7             2.5239    -2.6959     0.1591 C.ar    
   8 C8             3.6339    -2.0434    -0.3603 C.ar    
   9 C9             3.5377    -0.7165    -0.7582 C.ar    
  10 C10            2.3340    -0.0430    -0.6430 C.ar    
  11 N11            4.8504    -2.7231    -0.4824 N.pl3   
  12 C12            6.0221    -2.0352    -1.0303 C.3     
  13 C13            7.1945    -2.9817    -1.0546 C.ar    
  14 C14            7.4239    -3.7687    -2.1678 C.ar    
  15 C15            8.4990    -4.6367    -2.1914 C.ar    
  16 C16            9.3466    -4.7179    -1.0996 C.ar    
  17 C17            9.1159    -3.9292     0.0148 C.ar    
  18 C18            8.0432    -3.0581     0.0340 C.ar    
  19 F19           10.3977    -5.5664    -1.1213 F       
  20 F20            2.2415     1.2463    -1.0360 F       
  21 N21            0.1987    -2.6774     0.8040 N.pl3   
  22 C22           -1.5880     2.2254     2.3976 C.3     
  23 C23           -2.9035     2.9998     2.2944 C.3     
  24 H24           -0.6556    -0.0551    -0.7091 H       
  25 H25            2.5995    -3.7278     0.4687 H       
  26 H26            4.4023    -0.2105    -1.1616 H       
  27 H27            4.9182    -3.6499    -0.2043 H       
  28 H28            5.8051    -1.6995    -2.0444 H       
  29 H29            6.2628    -1.1745    -0.4064 H       
  30 H30            6.7624    -3.7054    -3.0192 H       
  31 H31            8.6778    -5.2517    -3.0610 H       
  32 H32            9.7764    -3.9917     0.8670 H       
  33 H33            7.8654    -2.4397     0.9015 H       
  34 H34           -0.6443    -2.2051     0.8889 H       
  35 H35            0.2654    -3.6043     1.0821 H       
  36 H36           -1.6335     1.5434     3.2466 H       
  37 H37           -0.7643     2.9254     2.5375 H       
  38 H38           -3.0624     3.5696     3.2100 H       
  39 H39           -2.8580     3.6818     1.4454 H       
  40 H40           -3.7272     2.2999     2.1545 H       
@<TRIPOS>BOND
   1    1    2 am
   2    1    3 2
   3    1    4 1
   4    2    5 1
   5    2   24 1
   6    4   22 1
   7    5    6 ar
   8    5   10 ar
   9    6    7 ar
  10    6   21 1
  11    7    8 ar
  12    7   25 1
  13    8    9 ar
  14    8   11 1
  15    9   10 ar
  16    9   26 1
  17   10   20 1
  18   11   12 1
  19   11   27 1
  20   12   13 1
  21   12   28 1
  22   12   29 1
  23   13   14 ar
  24   13   18 ar
  25   14   15 ar
  26   14   30 1
  27   15   16 ar
  28   15   31 1
  29   16   17 ar
  30   16   19 1
  31   17   18 ar
  32   17   32 1
  33   18   33 1
  34   21   34 1
  35   21   35 1
  36   22   23 1
  37   22   36 1
  38   22   37 1
  39   23   38 1
  40   23   39 1
  41   23   40 1

#	End of record

