#	Name: ASD01813987
#	Creating user name:	WinNT
#	Creation time:	15. 06. 2019 19:31

#	Modifying user name:	WinNT
#	Modification time:	15. 06. 2019 19:31

#	Program:	/corina/corina34_cracker 3.40 0067  02.08.2006

@<TRIPOS>MOLECULE
ASD01813987
  36   39    0    0    0
SMALL
NO_CHARGES


@<TRIPOS>ATOM
   1 C1            -0.0169     1.3935     0.0097 C.ar    
   2 C2             0.0021    -0.0041     0.0020 C.ar    
   3 C3             1.2525    -0.6619    -0.0135 C.ar    
   4 C4             2.4160     0.1050    -0.0210 C.ar    
   5 C5             2.2961     1.4801    -0.0129 C.ar    
   6 N6             1.1125     2.0677     0.0025 N.ar    
   7 C7             1.2640    -2.1319    -0.0215 C.2     
   8 N8            -1.1304    -0.7469     0.0093 N.2     
   9 C9            -1.0909    -2.0455     0.0024 C.2     
  10 N10            0.0640    -2.7606    -0.0134 N.am    
  11 C11            0.0114    -4.2246    -0.0208 C.3     
  12 C12           -1.1926    -4.9246     2.0585 C.ar    
  13 C13            0.0070    -4.7343     1.3974 C.ar    
  14 C14            1.2024    -5.0110     2.0349 C.ar    
  15 C15           -1.1999    -5.3920     3.3582 C.ar    
  16 C16           -0.0012    -5.6712     4.0007 C.ar    
  17 C17            1.2016    -5.4791     3.3344 C.ar    
  18 N18           -0.0053    -6.1457     5.3198 N.pl3   
  19 O19            2.3076    -2.7577    -0.0353 O.2     
  20 C20            1.0850    -6.4498     6.0596 C.2     
  21 C21            0.6556    -6.8711     7.2718 C.2     
  22 C22           -0.7428    -6.8232     7.2740 C.2     
  23 N23           -1.1395    -6.3830     6.1071 N.2     
  24 H24           -0.9597     1.9202     0.0170 H       
  25 H25            3.3881    -0.3653    -0.0325 H       
  26 H26            3.1884     2.0886    -0.0185 H       
  27 H27           -2.0262    -2.5853     0.0092 H       
  28 H28           -0.8959    -4.5530    -0.5277 H       
  29 H29            0.8828    -4.6169    -0.5451 H       
  30 H30           -2.1245    -4.7030     1.5597 H       
  31 H31            2.1377    -4.8614     1.5161 H       
  32 H32           -2.1370    -5.5401     3.8741 H       
  33 H33            2.1355    -5.6958     3.8315 H       
  34 H34            2.1137    -6.3710     5.7402 H       
  35 H35            1.2818    -7.1885     8.0925 H       
  36 H36           -1.3842    -7.0981     8.0982 H       
@<TRIPOS>BOND
   1    1    2 ar
   2    1    6 ar
   3    1   24 1
   4    2    3 ar
   5    2    8 1
   6    3    4 ar
   7    3    7 1
   8    4    5 ar
   9    4   25 1
  10    5    6 ar
  11    5   26 1
  12    7   10 am
  13    7   19 2
  14    8    9 2
  15    9   10 1
  16    9   27 1
  17   10   11 1
  18   11   13 1
  19   11   28 1
  20   11   29 1
  21   12   15 ar
  22   12   13 ar
  23   12   30 1
  24   13   14 ar
  25   14   17 ar
  26   14   31 1
  27   15   16 ar
  28   15   32 1
  29   16   17 ar
  30   16   18 1
  31   17   33 1
  32   18   23 1
  33   18   20 1
  34   20   21 2
  35   20   34 1
  36   21   22 1
  37   21   35 1
  38   22   23 2
  39   22   36 1

#	End of record

