#	Name: ASD00431354
#	Creating user name:	WinNT
#	Creation time:	15. 06. 2019 18:35

#	Modifying user name:	WinNT
#	Modification time:	15. 06. 2019 18:35

#	Program:	/corina/corina34_cracker 3.40 0067  02.08.2006

@<TRIPOS>MOLECULE
ASD00431354
  25   26    0    0    0
SMALL
NO_CHARGES


@<TRIPOS>ATOM
   1 S1            -1.8383     1.4590     1.3425 S.3     
   2 C2            -1.3517    -0.1717     1.1842 C.2     
   3 N3            -1.2586    -0.7372     2.3531 N.2     
   4 C4            -1.5373    -0.0049     3.3986 C.2     
   5 C5            -1.8957     1.2854     3.0949 C.2     
   6 C6            -2.2464     2.2898     4.0186 C.2     
   7 O7            -2.5469     3.3991     3.6247 O.2     
   8 O8            -1.0987    -0.7888     0.0083 O.3     
   9 C9            -0.8236    -2.1201     0.0323 C.ar    
  10 C10           -1.8493    -3.0373     0.2091 C.ar    
  11 C11           -1.5698    -4.3896     0.2335 C.ar    
  12 C12           -0.2635    -4.8308     0.0817 C.ar    
  13 C13            0.7621    -3.9137    -0.0951 C.ar    
  14 C14            0.4820    -2.5617    -0.1257 C.ar    
  15 O15            0.0117    -6.1621     0.1067 O.3     
  16 C16            1.3788    -6.5451    -0.0558 C.3     
  17 H17           -1.4899    -0.3803     4.4101 H       
  18 H18           -2.2481     2.0736     5.0767 H       
  19 H19           -2.8663    -2.6938     0.3280 H       
  20 H20           -2.3683    -5.1037     0.3712 H       
  21 H21            1.7793    -4.2573    -0.2129 H       
  22 H22            1.2799    -1.8479    -0.2681 H       
  23 H23            1.4589    -7.6314    -0.0165 H       
  24 H24            1.7440    -6.1885    -1.0189 H       
  25 H25            1.9762    -6.1075     0.7440 H       
@<TRIPOS>BOND
   1    1    2 1
   2    1    5 1
   3    2    3 2
   4    2    8 1
   5    3    4 1
   6    4    5 2
   7    4   17 1
   8    5    6 1
   9    6    7 2
  10    6   18 1
  11    8    9 1
  12    9   10 ar
  13    9   14 ar
  14   10   11 ar
  15   10   19 1
  16   11   12 ar
  17   11   20 1
  18   12   13 ar
  19   12   15 1
  20   13   14 ar
  21   13   21 1
  22   14   22 1
  23   15   16 1
  24   16   23 1
  25   16   24 1
  26   16   25 1

#	End of record

