#	Name: ASD04591076
#	Creating user name:	WinNT
#	Creation time:	15. 06. 2019 20:52

#	Modifying user name:	WinNT
#	Modification time:	15. 06. 2019 20:52

#	Program:	/corina/corina34_cracker 3.40 0067  02.08.2006

@<TRIPOS>MOLECULE
ASD04591076
  70   76    0    0    0
SMALL
NO_CHARGES


@<TRIPOS>ATOM
   1 N1            -2.2651    -2.5542    -0.1079 N.ar    
   2 C2            -1.1126    -1.9066     0.0069 C.ar    
   3 N3             0.0530    -2.5329     0.0121 N.ar    
   4 C4             0.1107    -3.8566    -0.0991 C.ar    
   5 C5            -1.0965    -4.5737    -0.2222 C.ar    
   6 C6            -2.2976    -3.8716    -0.2231 C.ar    
   7 N7             1.1513    -4.7518    -0.1234 N.pl3   
   8 C8             0.6745    -6.0442    -0.2590 C.ar    
   9 C9            -0.7293    -5.9918    -0.3258 C.ar    
  10 C10            1.2951    -7.2844    -0.3348 C.ar    
  11 N11            0.5814    -8.3839    -0.4667 N.ar    
  12 C12           -0.7382    -8.3691    -0.5324 C.ar    
  13 C13           -1.4392    -7.1839    -0.4642 C.ar    
  14 N14           -1.1303    -0.5268     0.1250 N.pl3   
  15 C15           -2.3381     0.1658     0.0338 C.ar    
  16 N16           -3.4514    -0.4806    -0.2699 N.ar    
  17 N17           -4.5841     0.1156    -0.3645 N.ar    
  18 C18           -4.7142     1.4170    -0.1646 C.ar    
  19 C19           -3.5950     2.1850     0.1610 C.ar    
  20 C20           -2.3751     1.5410     0.2686 C.ar    
  21 N21           -5.9651     2.0194    -0.2791 N.3     
  22 C22            2.5673    -4.3901    -0.0208 C.3     
  23 C23           -6.3160     2.7416     0.9504 C.3     
  24 C24            2.9576    -3.4547    -1.1786 C.3     
  25 C25            3.4330    -2.1345    -0.5374 C.3     
  26 C26            3.8748    -2.5429     0.8898 C.3     
  27 C27            2.8191    -3.6057     1.2835 C.3     
  28 C28           -6.9948     1.0320    -0.6272 C.3     
  29 C29           -8.3225     1.7475    -0.8868 C.3     
  30 C30           -8.7341     2.5207     0.3691 C.3     
  31 C31           -7.6234     3.5081     0.7379 C.3     
  32 N32           -9.9780     3.2567     0.1067 N.3     
  33 C33          -10.4603     3.9352     1.3292 C.3     
  34 C34          -11.9993     3.9105     1.2824 C.3     
  35 C35          -12.3515     3.1527    -0.0183 C.3     
  36 C36          -11.0675     2.3327    -0.3001 C.3     
  37 O37          -13.4695     2.2868     0.1878 O.3     
  38 H38           -3.2391    -4.3924    -0.3162 H       
  39 H39            2.3721    -7.3479    -0.2856 H       
  40 H40           -1.2758    -9.2995    -0.6406 H       
  41 H41           -2.5179    -7.1787    -0.5185 H       
  42 H42           -0.3030    -0.0418     0.2710 H       
  43 H43           -3.6794     3.2487     0.3279 H       
  44 H44           -1.4775     2.0873     0.5181 H       
  45 H45            3.1843    -5.2883    -0.0422 H       
  46 H46           -6.4407     2.0300     1.7666 H       
  47 H47           -5.5199     3.4434     1.1991 H       
  48 H48            3.7646    -3.8986    -1.7614 H       
  49 H49            2.0935    -3.2699    -1.8168 H       
  50 H50            4.2744    -1.7216    -1.0938 H       
  51 H51            2.6146    -1.4159    -0.4924 H       
  52 H52            4.8741    -2.9781     0.8751 H       
  53 H53            3.8341    -1.6890     1.5660 H       
  54 H54            1.9016    -3.1247     1.6226 H       
  55 H55            3.2126    -4.2664     2.0560 H       
  56 H56           -6.6917     0.4920    -1.5242 H       
  57 H57           -7.1164     0.3284     0.1964 H       
  58 H58           -8.2053     2.4413    -1.7193 H       
  59 H59           -9.0903     1.0129    -1.1298 H       
  60 H60           -8.8892     1.8230     1.1920 H       
  61 H61           -7.8917     4.0315     1.6556 H       
  62 H62           -7.4952     4.2296    -0.0691 H       
  63 H63          -10.1071     3.4037     2.2129 H       
  64 H64          -10.1059     4.9659     1.3463 H       
  65 H65          -12.3957     3.3802     2.1483 H       
  66 H66          -12.3931     4.9262     1.2469 H       
  67 H67          -12.5486     3.8521    -0.8308 H       
  68 H68          -10.9907     2.0904    -1.3600 H       
  69 H69          -11.0493     1.4264     0.3051 H       
  70 H70          -14.2809     2.7463     0.4437 H       
@<TRIPOS>BOND
   1    1    2 ar
   2    1    6 ar
   3    2    3 ar
   4    2   14 1
   5    3    4 ar
   6    4    5 ar
   7    4    7 1
   8    5    6 ar
   9    5    9 1
  10    6   38 1
  11    7    8 1
  12    7   22 1
  13    8    9 ar
  14    8   10 ar
  15    9   13 ar
  16   10   11 ar
  17   10   39 1
  18   11   12 ar
  19   12   13 ar
  20   12   40 1
  21   13   41 1
  22   14   15 1
  23   14   42 1
  24   15   16 ar
  25   15   20 ar
  26   16   17 ar
  27   17   18 ar
  28   18   19 ar
  29   18   21 1
  30   19   20 ar
  31   19   43 1
  32   20   44 1
  33   21   28 1
  34   21   23 1
  35   22   24 1
  36   22   27 1
  37   22   45 1
  38   23   31 1
  39   23   46 1
  40   23   47 1
  41   24   25 1
  42   24   48 1
  43   24   49 1
  44   25   26 1
  45   25   50 1
  46   25   51 1
  47   26   27 1
  48   26   52 1
  49   26   53 1
  50   27   54 1
  51   27   55 1
  52   28   29 1
  53   28   56 1
  54   28   57 1
  55   29   30 1
  56   29   58 1
  57   29   59 1
  58   30   31 1
  59   30   32 1
  60   30   60 1
  61   31   61 1
  62   31   62 1
  63   32   33 1
  64   32   36 1
  65   33   34 1
  66   33   63 1
  67   33   64 1
  68   34   35 1
  69   34   65 1
  70   34   66 1
  71   35   36 1
  72   35   37 1
  73   35   67 1
  74   36   68 1
  75   36   69 1
  76   37   70 1

#	End of record

