#	Name: ASD03430208
#	Creating user name:	WinNT
#	Creation time:	15. 06. 2019 20:40

#	Modifying user name:	WinNT
#	Modification time:	15. 06. 2019 20:40

#	Program:	/corina/corina34_cracker 3.40 0067  02.08.2006

@<TRIPOS>MOLECULE
ASD03430208
  64   70    0    0    0
SMALL
NO_CHARGES


@<TRIPOS>ATOM
   1 C1             0.3628     0.7805     1.2322 C.ar    
   2 C2             0.2712    -0.5583     0.9219 C.ar    
   3 C3             1.4142    -1.3200     0.7980 C.ar    
   4 C4             2.6673    -0.7450     0.9935 C.ar    
   5 C5             2.7516     0.6089     1.2960 C.ar    
   6 C6             1.6028     1.3817     1.4145 C.ar    
   7 O7             3.6596    -1.6702     0.8584 O.3     
   8 C8             1.6525    -2.7658     0.4564 C.3     
   9 C9             3.1535    -2.8090     0.1365 C.3     
  10 C10            0.3497    -4.5690     1.0663 C.ar    
  11 C11            1.2952    -3.6876     1.5847 C.ar    
  12 C12            0.8214    -3.2215    -0.7081 C.2     
  13 N13            0.0955    -4.2715    -0.2744 N.am    
  14 O14            0.8060    -2.7394    -1.8209 O.2     
  15 C15            1.7039    -3.7904     2.8952 C.ar    
  16 C16            1.1760    -4.7756     3.7111 C.ar    
  17 C17            0.2364    -5.6559     3.2072 C.ar    
  18 C18           -0.1768    -5.5570     1.8948 C.ar    
  19 C19           -0.8494    -5.0143    -1.1121 C.3     
  20 C20           -0.6877     1.8517     1.4499 C.3     
  21 C21            0.1308     2.9664     2.1435 C.3     
  22 O22            1.4692     2.7100     1.6854 O.3     
  23 C23           -2.2401    -4.4734    -0.9015 C.ar    
  24 C24           -2.6816    -3.3729    -1.6382 C.ar    
  25 C25           -1.7874    -2.7346    -2.6275 C.2     
  26 O26           -1.2137    -3.4145    -3.4558 O.2     
  27 C27           -3.0815    -5.0680     0.0156 C.ar    
  28 C28           -4.3590    -4.5728     0.2099 C.ar    
  29 C29           -4.8009    -3.4793    -0.5131 C.ar    
  30 C30           -3.9710    -2.8781    -1.4370 C.ar    
  31 N31           -1.6084    -1.3989    -2.6110 N.am    
  32 C32           -0.8154    -0.7369    -3.6558 C.3     
  33 C33           -1.6554     0.3835    -4.2769 C.3     
  34 C34           -2.1455     1.3211    -3.1711 C.3     
  35 C35           -3.0275     0.5417    -2.1929 C.3     
  36 C36           -2.2077    -0.5763    -1.5513 C.3     
  37 H37           -0.6977    -1.0125     0.7758 H       
  38 H38            3.7198     1.0649     1.4410 H       
  39 H39            3.3244    -2.6957    -0.9341 H       
  40 H40            3.6015    -3.7315     0.5056 H       
  41 H41            2.4377    -3.1015     3.2869 H       
  42 H42            1.4975    -4.8569     4.7389 H       
  43 H43           -0.1757    -6.4247     3.8440 H       
  44 H44           -0.9110    -6.2484     1.5082 H       
  45 H45           -0.5711    -4.9031    -2.1601 H       
  46 H46           -0.8248    -6.0694    -0.8396 H       
  47 H47           -1.0921     2.1996     0.4993 H       
  48 H48           -1.4835     1.4902     2.1011 H       
  49 H49           -0.2062     3.9512     1.8199 H       
  50 H50            0.0691     2.8730     3.2278 H       
  51 H51           -2.7427    -5.9222     0.5830 H       
  52 H52           -5.0140    -5.0422     0.9289 H       
  53 H53           -5.7992    -3.0979    -0.3570 H       
  54 H54           -4.3171    -2.0245    -2.0008 H       
  55 H55            0.0886    -0.3152    -3.2163 H       
  56 H56           -0.5467    -1.4613    -4.4247 H       
  57 H57           -1.0465     0.9444    -4.9860 H       
  58 H58           -2.5122    -0.0482    -4.7942 H       
  59 H59           -1.2887     1.7332    -2.6382 H       
  60 H60           -2.7230     2.1331    -3.6129 H       
  61 H61           -3.3952     1.2151    -1.4187 H       
  62 H62           -3.8714     0.1085    -2.7298 H       
  63 H63           -2.8559    -1.1943    -0.9299 H       
  64 H64           -1.4157    -0.1440    -0.9398 H       
@<TRIPOS>BOND
   1    1    2 ar
   2    1    6 ar
   3    1   20 1
   4    2    3 ar
   5    2   37 1
   6    3    4 ar
   7    3    8 1
   8    4    5 ar
   9    4    7 1
  10    5    6 ar
  11    5   38 1
  12    6   22 1
  13    7    9 1
  14    8    9 1
  15    8   11 1
  16    8   12 1
  17    9   39 1
  18    9   40 1
  19   10   11 ar
  20   10   13 1
  21   10   18 ar
  22   11   15 ar
  23   12   13 am
  24   12   14 2
  25   13   19 1
  26   15   16 ar
  27   15   41 1
  28   16   17 ar
  29   16   42 1
  30   17   18 ar
  31   17   43 1
  32   18   44 1
  33   19   23 1
  34   19   45 1
  35   19   46 1
  36   20   21 1
  37   20   47 1
  38   20   48 1
  39   21   22 1
  40   21   49 1
  41   21   50 1
  42   23   24 ar
  43   23   27 ar
  44   24   25 1
  45   24   30 ar
  46   25   26 2
  47   25   31 am
  48   27   28 ar
  49   27   51 1
  50   28   29 ar
  51   28   52 1
  52   29   30 ar
  53   29   53 1
  54   30   54 1
  55   31   32 1
  56   31   36 1
  57   32   33 1
  58   32   55 1
  59   32   56 1
  60   33   34 1
  61   33   57 1
  62   33   58 1
  63   34   35 1
  64   34   59 1
  65   34   60 1
  66   35   36 1
  67   35   61 1
  68   35   62 1
  69   36   63 1
  70   36   64 1

#	End of record

