#	Name: ASD01811507
#	Creating user name:	WinNT
#	Creation time:	15. 06. 2019 19:26

#	Modifying user name:	WinNT
#	Modification time:	15. 06. 2019 19:26

#	Program:	/corina/corina34_cracker 3.40 0067  02.08.2006

@<TRIPOS>MOLECULE
ASD01811507
  58   62    0    0    0
SMALL
NO_CHARGES


@<TRIPOS>ATOM
   1 C1            -0.2507     1.4989    -0.7889 C.ar    
   2 C2            -0.2399     0.1294    -0.5988 C.ar    
   3 C3             0.9311    -0.5177    -0.2618 C.ar    
   4 C4             2.1123     0.2042    -0.1110 C.ar    
   5 C5             2.0897     1.5826    -0.3057 C.ar    
   6 C6             0.9188     2.2241    -0.6411 C.ar    
   7 N7             3.4024    -0.2155     0.2202 N.am    
   8 C8             4.2749     0.8097     0.2631 C.2     
   9 C9             3.4975     2.0530    -0.0736 C.3     
  10 C10            4.0696     2.7569    -1.3067 C.3     
  11 N11            4.4138     4.1359    -0.8885 N.3     
  12 C12            4.6506     4.0686     0.5772 C.3     
  13 C13            3.5640     3.0771     1.0704 C.3     
  14 C14            5.6096     4.6169    -1.5934 C.3     
  15 C15            5.3297     4.6670    -3.0967 C.3     
  16 C16            5.9667     6.0183    -1.0941 C.3     
  17 O17            5.4577     0.7435     0.5236 O.2     
  18 C18            3.7646    -1.6092     0.4901 C.3     
  19 C19            4.1809    -2.2779    -0.7946 C.ar    
  20 C20            5.4574    -2.0782    -1.2950 C.ar    
  21 C21            5.8431    -2.6903    -2.4729 C.ar    
  22 C22            4.9457    -3.5079    -3.1556 C.ar    
  23 C23            3.6639    -3.7045    -2.6472 C.ar    
  24 C24            3.2896    -3.0932    -1.4673 C.ar    
  25 F25            6.3259    -1.2843    -0.6312 F       
  26 C26            5.3540    -4.1676    -4.4216 C.2     
  27 C27            6.6104    -4.0595    -5.0489 C.2     
  28 N28            6.5846    -4.7829    -6.1368 N.2     
  29 N29            5.3213    -5.3766    -6.2463 N.pl3   
  30 C30            4.5823    -4.9936    -5.1856 C.2     
  31 C31            4.8804    -6.2651    -7.3244 C.3     
  32 H32           -1.1687     2.0009    -1.0564 H       
  33 H33           -1.1525    -0.4364    -0.7143 H       
  34 H34            0.9316    -1.5876    -0.1142 H       
  35 H35            0.9130     3.2938    -0.7898 H       
  36 H36            4.9637     2.2375    -1.6515 H       
  37 H37            3.3235     2.7833    -2.1009 H       
  38 H38            5.6478     3.6822     0.7880 H       
  39 H39            4.5126     5.0485     1.0342 H       
  40 H40            2.6062     3.5828     1.1926 H       
  41 H41            3.8711     2.5984     2.0003 H       
  42 H42            6.4417     3.9396    -1.4011 H       
  43 H43            6.2169     5.0238    -3.6198 H       
  44 H44            5.0753     3.6685    -3.4524 H       
  45 H45            4.4976     5.3442    -3.2890 H       
  46 H46            6.2630     5.9663    -0.0465 H       
  47 H47            6.7917     6.4155    -1.6857 H       
  48 H48            5.1001     6.6717    -1.1947 H       
  49 H49            4.5916    -1.6388     1.1996 H       
  50 H50            2.9061    -2.1328     0.9107 H       
  51 H51            6.8380    -2.5344    -2.8632 H       
  52 H52            2.9648    -4.3374    -3.1736 H       
  53 H53            2.2958    -3.2459    -1.0730 H       
  54 H54            7.4489    -3.4792    -4.6930 H       
  55 H55            3.5621    -5.2829    -4.9812 H       
  56 H56            5.1064    -7.2980    -7.0593 H       
  57 H57            3.8059    -6.1542    -7.4702 H       
  58 H58            5.4009    -6.0043    -8.2459 H       
@<TRIPOS>BOND
   1    1    2 ar
   2    1    6 ar
   3    1   32 1
   4    2    3 ar
   5    2   33 1
   6    3    4 ar
   7    3   34 1
   8    4    5 ar
   9    4    7 1
  10    5    6 ar
  11    5    9 1
  12    6   35 1
  13    7    8 am
  14    7   18 1
  15    8    9 1
  16    8   17 2
  17    9   10 1
  18    9   13 1
  19   10   11 1
  20   10   36 1
  21   10   37 1
  22   11   12 1
  23   11   14 1
  24   12   13 1
  25   12   38 1
  26   12   39 1
  27   13   40 1
  28   13   41 1
  29   14   15 1
  30   14   16 1
  31   14   42 1
  32   15   43 1
  33   15   44 1
  34   15   45 1
  35   16   46 1
  36   16   47 1
  37   16   48 1
  38   18   19 1
  39   18   49 1
  40   18   50 1
  41   19   20 ar
  42   19   24 ar
  43   20   21 ar
  44   20   25 1
  45   21   22 ar
  46   21   51 1
  47   22   23 ar
  48   22   26 1
  49   23   24 ar
  50   23   52 1
  51   24   53 1
  52   26   27 1
  53   26   30 2
  54   27   28 2
  55   27   54 1
  56   28   29 1
  57   29   30 1
  58   29   31 1
  59   30   55 1
  60   31   56 1
  61   31   57 1
  62   31   58 1

#	End of record

