#	Name: ASD08070611
#	Creating user name:	WinNT
#	Creation time:	15. 06. 2019 21:15

#	Modifying user name:	WinNT
#	Modification time:	15. 06. 2019 21:15

#	Program:	/corina/corina34_cracker 3.40 0067  02.08.2006

@<TRIPOS>MOLECULE
ASD08070611
  43   44    0    0    0
SMALL
NO_CHARGES


@<TRIPOS>ATOM
   1 O1            -0.0161     1.3397     0.0094 O.3     
   2 C2             0.0021    -0.0041     0.0020 C.2     
   3 N3             1.2336    -0.4380    -0.0121 N.2     
   4 C4             2.0743     0.6342    -0.0143 C.ar    
   5 C5             1.2618     1.7803    -0.0004 C.ar    
   6 C6             3.4594     0.7675    -0.0269 C.ar    
   7 C7             4.0283     2.0388    -0.0255 C.ar    
   8 C8             3.2094     3.1738    -0.0111 C.ar    
   9 C9             1.8395     3.0421     0.0008 C.ar    
  10 C10            5.4977     2.1894    -0.0387 C.2     
  11 O11            6.2096     1.2040    -0.0508 O.2     
  12 N12            6.0491     3.4192    -0.0373 N.am    
  13 C13            7.5064     3.5686    -0.0504 C.3     
  14 C14            8.0128     3.5032    -1.4927 C.3     
  15 C15            7.7435     2.1101    -2.0652 C.3     
  16 C16            8.2499     2.0448    -3.5075 C.3     
  17 C17            7.8863     4.9178     0.5628 C.3     
  18 C18            7.4908     4.9357     2.0407 C.3     
  19 C19            7.8708     6.2850     2.6540 C.3     
  20 O20           -1.0959    -0.7926     0.0087 O.3     
  21 C21           -2.3654    -0.1369     0.0242 C.3     
  22 H22            4.0895    -0.1096    -0.0372 H       
  23 H23            3.6547     4.1578    -0.0093 H       
  24 H24            1.2132     3.9220     0.0115 H       
  25 H25            5.4810     4.2054    -0.0277 H       
  26 H26            7.9592     2.7651     0.5304 H       
  27 H27            7.4939     4.2497    -2.0942 H       
  28 H28            9.0842     3.7027    -1.5110 H       
  29 H29            8.2624     1.3637    -1.4637 H       
  30 H30            6.6721     1.9107    -2.0469 H       
  31 H31            7.7311     2.7912    -4.1089 H       
  32 H32            9.3214     2.2443    -3.5257 H       
  33 H33            8.0581     1.0523    -3.9153 H       
  34 H34            8.9621     5.0679     0.4727 H       
  35 H35            7.3628     5.7163     0.0370 H       
  36 H36            6.4150     4.7857     2.1308 H       
  37 H37            8.0143     4.1373     2.5666 H       
  38 H38            8.9466     6.4350     2.5639 H       
  39 H39            7.3473     7.0834     2.1281 H       
  40 H40            7.5890     6.2977     3.7069 H       
  41 H41           -2.4438     0.4819     0.9181 H       
  42 H42           -2.4610     0.4909    -0.8617 H       
  43 H43           -3.1598    -0.8832     0.0282 H       
@<TRIPOS>BOND
   1    1    2 1
   2    1    5 1
   3    2    3 2
   4    2   20 1
   5    3    4 1
   6    4    5 ar
   7    4    6 ar
   8    5    9 ar
   9    6    7 ar
  10    6   22 1
  11    7    8 ar
  12    7   10 1
  13    8    9 ar
  14    8   23 1
  15    9   24 1
  16   10   11 2
  17   10   12 am
  18   12   13 1
  19   12   25 1
  20   13   14 1
  21   13   17 1
  22   13   26 1
  23   14   15 1
  24   14   27 1
  25   14   28 1
  26   15   16 1
  27   15   29 1
  28   15   30 1
  29   16   31 1
  30   16   32 1
  31   16   33 1
  32   17   18 1
  33   17   34 1
  34   17   35 1
  35   18   19 1
  36   18   36 1
  37   18   37 1
  38   19   38 1
  39   19   39 1
  40   19   40 1
  41   20   21 1
  42   21   41 1
  43   21   42 1
  44   21   43 1

#	End of record

