#	Name: ASD01910770
#	Creating user name:	WinNT
#	Creation time:	15. 06. 2019 19:56

#	Modifying user name:	WinNT
#	Modification time:	15. 06. 2019 19:56

#	Program:	/corina/corina34_cracker 3.40 0067  02.08.2006

@<TRIPOS>MOLECULE
ASD01910770
  52   55    0    0    0
SMALL
NO_CHARGES


@<TRIPOS>ATOM
   1 N1            -0.3349     1.4407    -0.7445 N.am    
   2 C2            -0.3335    -0.0300    -0.7246 C.3     
   3 C3            -0.4389    -0.5363    -2.1671 C.3     
   4 N4             0.6239     0.0750    -2.9762 N.3     
   5 C5             0.4695     1.5343    -3.0439 C.3     
   6 C6             0.6122     2.1255    -1.6374 C.3     
   7 C7             0.6632    -0.4814    -4.2494 C.ar    
   8 C8             1.6062    -0.0330    -5.1690 C.ar    
   9 C9             1.6340    -0.5954    -6.4322 C.ar    
  10 C10            0.7144    -1.5912    -6.7348 C.ar    
  11 C11           -0.1935    -1.9877    -5.7739 C.ar    
  12 N12           -0.1935    -1.4371    -4.5745 N.ar    
  13 C13           -1.1853     2.1421     0.0309 C.2     
  14 C14           -1.0864     3.6163     0.0909 C.ar    
  15 C15           -2.2327     4.3983    -0.0332 C.ar    
  16 C16           -2.1303     5.7881     0.0250 C.ar    
  17 C17           -0.8794     6.3862     0.2073 C.ar    
  18 C18            0.2513     5.6042     0.3288 C.ar    
  19 C19            0.1555     4.2273     0.2778 C.ar    
  20 O20           -2.0336     1.5630     0.6809 O.2     
  21 C21           -3.3028     6.6003    -0.1020 C.1     
  22 C22           -4.2641     7.2662    -0.2061 C.1     
  23 C23           -5.4366     8.0784    -0.3330 C.ar    
  24 C24           -5.3358     9.4709    -0.2749 C.ar    
  25 C25           -6.4693    10.2467    -0.3985 C.ar    
  26 C26           -7.7044     9.6494    -0.5791 C.ar    
  27 C27           -7.8121     8.2710    -0.6372 C.ar    
  28 C28           -6.6864     7.4825    -0.5215 C.ar    
  29 C29           -3.5767     3.7458    -0.2298 C.3     
  30 H30            0.5933    -0.3893    -0.2773 H       
  31 H31           -1.1854    -0.3892    -0.1473 H       
  32 H32           -0.3285    -1.6206    -2.1810 H       
  33 H33           -1.4111    -0.2640    -2.5781 H       
  34 H34            1.2388     1.9516    -3.6937 H       
  35 H35           -0.5153     1.7777    -3.4426 H       
  36 H36            0.3855     3.1913    -1.6635 H       
  37 H37            1.6299     1.9734    -1.2778 H       
  38 H38            2.3066     0.7439    -4.9002 H       
  39 H39            2.3544    -0.2673    -7.1669 H       
  40 H40            0.7096    -2.0504    -7.7123 H       
  41 H41           -0.9103    -2.7618    -6.0050 H       
  42 H42           -0.7980     7.4622     0.2526 H       
  43 H43            1.2151     6.0710     0.4687 H       
  44 H44            1.0439     3.6215     0.3785 H       
  45 H45           -4.3726     9.9384    -0.1333 H       
  46 H46           -6.3929    11.3231    -0.3538 H       
  47 H47           -8.5887    10.2619    -0.6749 H       
  48 H48           -8.7794     7.8117    -0.7777 H       
  49 H49           -6.7713     6.4070    -0.5718 H       
  50 H50           -3.9922     3.4704     0.7395 H       
  51 H51           -4.2497     4.4432    -0.7287 H       
  52 H52           -3.4604     2.8518    -0.8425 H       
@<TRIPOS>BOND
   1    1    2 1
   2    1    6 1
   3    1   13 am
   4    2    3 1
   5    2   30 1
   6    2   31 1
   7    3    4 1
   8    3   32 1
   9    3   33 1
  10    4    5 1
  11    4    7 1
  12    5    6 1
  13    5   34 1
  14    5   35 1
  15    6   36 1
  16    6   37 1
  17    7    8 ar
  18    7   12 ar
  19    8    9 ar
  20    8   38 1
  21    9   10 ar
  22    9   39 1
  23   10   11 ar
  24   10   40 1
  25   11   12 ar
  26   11   41 1
  27   13   14 1
  28   13   20 2
  29   14   15 ar
  30   14   19 ar
  31   15   16 ar
  32   15   29 1
  33   16   17 ar
  34   16   21 1
  35   17   18 ar
  36   17   42 1
  37   18   19 ar
  38   18   43 1
  39   19   44 1
  40   21   22 3
  41   22   23 1
  42   23   24 ar
  43   23   28 ar
  44   24   25 ar
  45   24   45 1
  46   25   26 ar
  47   25   46 1
  48   26   27 ar
  49   26   47 1
  50   27   28 ar
  51   27   48 1
  52   28   49 1
  53   29   50 1
  54   29   51 1
  55   29   52 1

#	End of record

