#	Name: ASD03430284
#	Creating user name:	WinNT
#	Creation time:	15. 06. 2019 20:40

#	Modifying user name:	WinNT
#	Modification time:	15. 06. 2019 20:40

#	Program:	/corina/corina34_cracker 3.40 0067  02.08.2006

@<TRIPOS>MOLECULE
ASD03430284
  71   76    0    0    0
SMALL
NO_CHARGES


@<TRIPOS>ATOM
   1 C1             0.0674     1.4387    -0.6591 C.ar    
   2 C2             0.1168     0.0790    -0.9014 C.ar    
   3 C3             1.2933    -0.6158    -0.7187 C.ar    
   4 C4             2.4417     0.0373    -0.2783 C.ar    
   5 C5             2.3888     1.4070    -0.0404 C.ar    
   6 C6             1.2078     2.1034    -0.2302 C.ar    
   7 O7             3.4808    -0.8330    -0.1359 O.3     
   8 C8             1.6705    -2.0595    -0.9159 C.3     
   9 C9             3.2049    -2.0297    -0.8888 C.3     
  10 C10            0.3443    -3.9034    -0.5139 C.ar    
  11 C11            1.1088    -2.9489     0.1530 C.ar    
  12 C12            1.1463    -2.6124    -2.2101 C.2     
  13 N13            0.3867    -3.6794    -1.8919 N.am    
  14 O14            1.3636    -2.1828    -3.3233 O.2     
  15 C15            1.2152    -2.9711     1.5254 C.ar    
  16 C16            0.5601    -3.9469     2.2559 C.ar    
  17 C17           -0.2014    -4.8994     1.6043 C.ar    
  18 C18           -0.3112    -4.8816     0.2292 C.ar    
  19 C19           -0.3128    -4.5081    -2.8770 C.3     
  20 C20           -1.7139    -3.9422    -3.1166 C.3     
  21 C21           -2.4584    -4.8074    -4.1520 C.3     
  22 C22           -3.7256    -5.2880    -3.4038 C.3     
  23 C23           -3.8462    -4.2435    -2.2651 C.3     
  24 O24           -2.4739    -3.9862    -1.8973 O.3     
  25 O25            1.1649     3.4414     0.0038 O.3     
  26 C26           -0.1110     4.0770    -0.0972 C.3     
  27 C27           -0.4118     4.4684    -1.5594 C.3     
  28 C28           -0.1020     5.4455     0.6340 C.3     
  29 C29           -1.2093     6.2136    -0.1300 C.3     
  30 N30           -1.0670     5.7842    -1.5331 N.am    
  31 C31           -1.4705     6.4825    -2.6130 C.2     
  32 O32           -2.0612     7.6822    -2.4567 O.3     
  33 O33           -1.3011     6.0293    -3.7276 O.2     
  34 C34           -2.4698     8.3781    -3.6638 C.3     
  35 C35           -3.4783     7.5200    -4.4305 C.3     
  36 C36           -3.1168     9.7129    -3.2889 C.3     
  37 C37           -1.2450     8.6344    -4.5441 C.3     
  38 H38           -0.8538     1.9827    -0.8071 H       
  39 H39           -0.7693    -0.4409    -1.2345 H       
  40 H40            3.2730     1.9291     0.2943 H       
  41 H41            3.6084    -1.9535    -1.8985 H       
  42 H42            3.6001    -2.9079    -0.3782 H       
  43 H43            1.8107    -2.2263     2.0324 H       
  44 H44            0.6437    -3.9647     3.3325 H       
  45 H45           -0.7123    -5.6611     2.1744 H       
  46 H46           -0.9077    -5.6290    -0.2727 H       
  47 H47            0.2445    -4.5073    -3.8137 H       
  48 H48           -0.3922    -5.5286    -2.5024 H       
  49 H49           -1.6424    -2.9152    -3.4746 H       
  50 H50           -2.7323    -4.2103    -5.0218 H       
  51 H51           -1.8454    -5.6581    -4.4497 H       
  52 H52           -4.5984    -5.2550    -4.0560 H       
  53 H53           -3.5819    -6.2899    -2.9991 H       
  54 H54           -4.3234    -3.3332    -2.6281 H       
  55 H55           -4.3985    -4.6574    -1.4214 H       
  56 H56           -0.8947     3.4307     0.2981 H       
  57 H57            0.5176     4.5283    -2.1258 H       
  58 H58           -1.0767     3.7321    -2.0109 H       
  59 H59           -0.3625     5.3282     1.6858 H       
  60 H60            0.8631     5.9404     0.5249 H       
  61 H61           -2.1929     5.9408     0.2523 H       
  62 H62           -1.0530     7.2889    -0.0446 H       
  63 H63           -4.3509     7.3374    -3.8033 H       
  64 H64           -3.7850     8.0424    -5.3366 H       
  65 H65           -3.0174     6.5691    -4.6976 H       
  66 H66           -2.3983    10.3241    -2.7427 H       
  67 H67           -3.4236    10.2352    -4.1950 H       
  68 H68           -3.9894     9.5302    -2.6617 H       
  69 H69           -0.7841     7.6835    -4.8113 H       
  70 H70           -1.5518     9.1568    -5.4503 H       
  71 H71           -0.5265     9.2457    -3.9980 H       
@<TRIPOS>BOND
   1    1    2 ar
   2    1    6 ar
   3    1   38 1
   4    2    3 ar
   5    2   39 1
   6    3    4 ar
   7    3    8 1
   8    4    5 ar
   9    4    7 1
  10    5    6 ar
  11    5   40 1
  12    6   25 1
  13    7    9 1
  14    8    9 1
  15    8   11 1
  16    8   12 1
  17    9   41 1
  18    9   42 1
  19   10   11 ar
  20   10   13 1
  21   10   18 ar
  22   11   15 ar
  23   12   13 am
  24   12   14 2
  25   13   19 1
  26   15   16 ar
  27   15   43 1
  28   16   17 ar
  29   16   44 1
  30   17   18 ar
  31   17   45 1
  32   18   46 1
  33   19   20 1
  34   19   47 1
  35   19   48 1
  36   20   21 1
  37   20   24 1
  38   20   49 1
  39   21   22 1
  40   21   50 1
  41   21   51 1
  42   22   23 1
  43   22   52 1
  44   22   53 1
  45   23   24 1
  46   23   54 1
  47   23   55 1
  48   25   26 1
  49   26   27 1
  50   26   28 1
  51   26   56 1
  52   27   30 1
  53   27   57 1
  54   27   58 1
  55   28   29 1
  56   28   59 1
  57   28   60 1
  58   29   30 1
  59   29   61 1
  60   29   62 1
  61   30   31 am
  62   31   32 1
  63   31   33 2
  64   32   34 1
  65   34   35 1
  66   34   36 1
  67   34   37 1
  68   35   63 1
  69   35   64 1
  70   35   65 1
  71   36   66 1
  72   36   67 1
  73   36   68 1
  74   37   69 1
  75   37   70 1
  76   37   71 1

#	End of record

