#	Name: ASD01881315
#	Creating user name:	WinNT
#	Creation time:	15. 06. 2019 19:42

#	Modifying user name:	WinNT
#	Modification time:	15. 06. 2019 19:42

#	Program:	/corina/corina34_cracker 3.40 0067  02.08.2006

@<TRIPOS>MOLECULE
ASD01881315
  57   58    0    0    0
SMALL
NO_CHARGES


@<TRIPOS>ATOM
   1 C1            -0.0179     1.4698     0.0101 C.2     
   2 C2             0.0021    -0.0041     0.0020 C.ar    
   3 C3             1.2235    -0.6928    -0.0133 C.ar    
   4 C4             1.2301    -2.0794    -0.0209 C.ar    
   5 C5             0.0386    -2.7775    -0.0138 C.ar    
   6 C6            -1.1701    -2.1010     0.0014 C.ar    
   7 C7            -1.1958    -0.7233     0.0154 C.ar    
   8 O8             1.0260     2.0916     0.0035 O.2     
   9 O9            -1.1939     2.1276     0.0193 O.3     
  10 O10            2.3931    -0.0059    -0.0212 O.3     
  11 C11            3.5972    -0.7751    -0.0368 C.3     
  12 C12            4.8036     0.1659    -0.0438 C.3     
  13 C13            6.0928    -0.6577    -0.0605 C.3     
  14 C14            7.2992     0.2833    -0.0674 C.3     
  15 O15            8.5033    -0.4860    -0.0830 O.3     
  16 C16            9.6731     0.2011    -0.0909 C.ar    
  17 C17           10.8781    -0.4873    -0.1061 C.ar    
  18 C18           12.0725     0.2115    -0.1142 C.ar    
  19 C19           12.0546     1.6182    -0.1069 C.ar    
  20 C20           10.8283     2.2963    -0.0915 C.ar    
  21 C21            9.6587     1.5934    -0.0895 C.ar    
  22 C22           13.3117     2.3704    -0.1148 C.2     
  23 C23           13.2882     3.8772    -0.1069 C.3     
  24 C24           14.7225     4.4097    -0.1176 C.3     
  25 C25           14.6994     5.9350    -0.2354 C.3     
  26 O26           14.3718     1.7802    -0.1277 O.2     
  27 C27           15.4249     4.0090     1.1812 C.3     
  28 C28           10.8858    -1.9942    -0.1133 C.3     
  29 O29           13.2530    -0.4556    -0.1286 O.3     
  30 H30            2.1683    -2.6142    -0.0327 H       
  31 H31            0.0492    -3.8574    -0.0204 H       
  32 H32           -2.0966    -2.6560     0.0065 H       
  33 H33           -2.1405    -0.2001     0.0321 H       
  34 H34           -1.1564     3.0939     0.0244 H       
  35 H35            3.6354    -1.4083     0.8496 H       
  36 H36            3.6181    -1.3992    -0.9302 H       
  37 H37            4.7654     0.7990    -0.9302 H       
  38 H38            4.7827     0.7900     0.8496 H       
  39 H39            6.1310    -1.2909     0.8260 H       
  40 H40            6.1137    -1.2818    -0.9539 H       
  41 H41            7.2610     0.9164    -0.9539 H       
  42 H42            7.2783     0.9074     0.8260 H       
  43 H43           10.8089     3.3761    -0.0859 H       
  44 H44            8.7159     2.1204    -0.0824 H       
  45 H45           12.7605     4.2370    -0.9902 H       
  46 H46           12.7771     4.2279     0.7897 H       
  47 H47           15.2604     3.9878    -0.9666 H       
  48 H48           14.1615     6.3568     0.6136 H       
  49 H49           15.7212     6.3143    -0.2430 H       
  50 H50           14.1990     6.2204    -1.1607 H       
  51 H51           16.4468     4.3884     1.1736 H       
  52 H52           14.8871     4.4309     2.0302 H       
  53 H53           15.4414     2.9224     1.2651 H       
  54 H54           10.8774    -2.3527    -1.1427 H       
  55 H55           11.7826    -2.3554     0.3899 H       
  56 H56           10.0028    -2.3646     0.4075 H       
  57 H57           13.5870    -0.6450    -1.0161 H       
@<TRIPOS>BOND
   1    1    2 1
   2    1    8 2
   3    1    9 1
   4    2    3 ar
   5    2    7 ar
   6    3    4 ar
   7    3   10 1
   8    4    5 ar
   9    4   30 1
  10    5    6 ar
  11    5   31 1
  12    6    7 ar
  13    6   32 1
  14    7   33 1
  15    9   34 1
  16   10   11 1
  17   11   12 1
  18   11   35 1
  19   11   36 1
  20   12   13 1
  21   12   37 1
  22   12   38 1
  23   13   14 1
  24   13   39 1
  25   13   40 1
  26   14   15 1
  27   14   41 1
  28   14   42 1
  29   15   16 1
  30   16   17 ar
  31   16   21 ar
  32   17   18 ar
  33   17   28 1
  34   18   19 ar
  35   18   29 1
  36   19   20 ar
  37   19   22 1
  38   20   21 ar
  39   20   43 1
  40   21   44 1
  41   22   23 1
  42   22   26 2
  43   23   24 1
  44   23   45 1
  45   23   46 1
  46   24   25 1
  47   24   27 1
  48   24   47 1
  49   25   48 1
  50   25   49 1
  51   25   50 1
  52   27   51 1
  53   27   52 1
  54   27   53 1
  55   28   54 1
  56   28   55 1
  57   28   56 1
  58   29   57 1

#	End of record

