#	Name: ASD08150943
#	Creating user name:	WinNT
#	Creation time:	15. 06. 2019 21:16

#	Modifying user name:	WinNT
#	Modification time:	15. 06. 2019 21:16

#	Program:	/corina/corina34_cracker 3.40 0067  02.08.2006

@<TRIPOS>MOLECULE
ASD08150943
  60   65    0    0    0
SMALL
NO_CHARGES


@<TRIPOS>ATOM
   1 N1             0.0864     1.4015    -0.4866 N.2     
   2 C2             0.1358     0.1051    -0.5886 C.2     
   3 N3             1.4326    -0.3062    -0.6756 N.pl3   
   4 C4             2.2236     0.8136    -0.6231 C.ar    
   5 N5             3.5324     1.0407    -0.6619 N.ar    
   6 C6             4.0029     2.2680    -0.5878 C.ar    
   7 N7             3.2168     3.3227    -0.4727 N.ar    
   8 C8             1.8948     3.1940    -0.4258 C.ar    
   9 C9             1.3447     1.9033    -0.5017 C.ar    
  10 N10            1.0791     4.3053    -0.3045 N.pl3   
  11 C11            1.6708     5.6432    -0.2262 C.3     
  12 C12            2.0215     6.1290    -1.6340 C.3     
  13 N13            0.6285     9.6594     2.3544 N.ar    
  14 C14           -0.2264    10.4886     2.9021 C.ar    
  15 C15           -1.6022    10.2901     2.8084 C.ar    
  16 C16           -2.0902     9.2086     2.1320 C.ar    
  17 C17           -1.1686     8.3207     1.5454 C.ar    
  18 C18           -1.5979     7.1875     0.8343 C.ar    
  19 C19           -0.6805     6.3472     0.2775 C.ar    
  20 C20            0.6835     6.5932     0.4015 C.ar    
  21 C21            1.1430     7.6939     1.0913 C.ar    
  22 C22            0.2169     8.5828     1.6793 C.ar    
  23 N23            2.5135     7.9281     1.2083 N.3     
  24 C24            2.9411     7.8617     2.6127 C.3     
  25 C25            4.4587     8.0444     2.6903 C.3     
  26 N26            4.8253     9.3355     2.0916 N.3     
  27 C27            4.3977     9.4019     0.6872 C.3     
  28 C28            2.8801     9.2192     0.6097 C.3     
  29 C29            6.2682     9.5821     2.2148 C.3     
  30 C30            6.7378    10.8606     1.5008 C.3     
  31 C31            7.6586    11.1026     2.7084 C.3     
  32 C32            6.6658    10.2665     3.5332 C.3     
  33 Cl33          -3.2940     6.8580     0.6656 Cl      
  34 H34           -0.7237    -0.5486    -0.6019 H       
  35 H35            1.7397    -1.2225    -0.7590 H       
  36 H36            5.0719     2.4178    -0.6222 H       
  37 H37            0.1155     4.1984    -0.2713 H       
  38 H38            2.5752     5.6056     0.3810 H       
  39 H39            1.1346     6.0825    -2.2659 H       
  40 H40            2.3791     7.1574    -1.5849 H       
  41 H41            2.8007     5.4930    -2.0542 H       
  42 H42            0.1455    11.3479     3.4403 H       
  43 H43           -2.2822    10.9905     3.2705 H       
  44 H44           -3.1536     9.0390     2.0498 H       
  45 H45           -1.0171     5.4779    -0.2679 H       
  46 H46            2.4502     8.6524     3.1801 H       
  47 H47            2.6698     6.8920     3.0300 H       
  48 H48            4.7745     8.0244     3.7333 H       
  49 H49            4.9503     7.2383     2.1456 H       
  50 H50            4.6690    10.3716     0.2699 H       
  51 H51            4.8886     8.6112     0.1198 H       
  52 H52            2.5642     9.2392    -0.4334 H       
  53 H53            2.3885    10.0253     1.1543 H       
  54 H54            6.8694     8.7041     1.9785 H       
  55 H55            7.2763    10.6696     0.5725 H       
  56 H56            5.9555    11.6116     1.3907 H       
  57 H57            8.6407    10.6407     2.6082 H       
  58 H58            7.7104    12.1472     3.0156 H       
  59 H59            5.8639    10.8552     3.9788 H       
  60 H60            7.1462     9.5960     4.2458 H       
@<TRIPOS>BOND
   1    1    2 2
   2    1    9 1
   3    2    3 1
   4    2   34 1
   5    3    4 1
   6    3   35 1
   7    4    5 ar
   8    4    9 ar
   9    5    6 ar
  10    6    7 ar
  11    6   36 1
  12    7    8 ar
  13    8    9 ar
  14    8   10 1
  15   10   11 1
  16   10   37 1
  17   11   12 1
  18   11   20 1
  19   11   38 1
  20   12   39 1
  21   12   40 1
  22   12   41 1
  23   13   14 ar
  24   13   22 ar
  25   14   15 ar
  26   14   42 1
  27   15   16 ar
  28   15   43 1
  29   16   17 ar
  30   16   44 1
  31   17   18 ar
  32   17   22 ar
  33   18   19 ar
  34   18   33 1
  35   19   20 ar
  36   19   45 1
  37   20   21 ar
  38   21   22 ar
  39   21   23 1
  40   23   24 1
  41   23   28 1
  42   24   25 1
  43   24   46 1
  44   24   47 1
  45   25   26 1
  46   25   48 1
  47   25   49 1
  48   26   27 1
  49   26   29 1
  50   27   28 1
  51   27   50 1
  52   27   51 1
  53   28   52 1
  54   28   53 1
  55   29   30 1
  56   29   32 1
  57   29   54 1
  58   30   31 1
  59   30   55 1
  60   30   56 1
  61   31   32 1
  62   31   57 1
  63   31   58 1
  64   32   59 1
  65   32   60 1

#	End of record

