#	Name: ASD01870611
#	Creating user name:	WinNT
#	Creation time:	15. 06. 2019 19:39

#	Modifying user name:	WinNT
#	Modification time:	15. 06. 2019 19:39

#	Program:	/corina/corina34_cracker 3.40 0067  02.08.2006

@<TRIPOS>MOLECULE
ASD01870611
  39   42    0    0    0
SMALL
NO_CHARGES


@<TRIPOS>ATOM
   1 C1             0.0028     1.3668    -0.0383 C.ar    
   2 C2             0.0255    -0.0191    -0.0502 C.ar    
   3 C3             1.2282    -0.7003    -0.0614 C.ar    
   4 C4             2.4286    -0.0070    -0.0615 C.ar    
   5 C5             2.4215     1.3786    -0.0501 C.ar    
   6 C6             1.1948     2.0733    -0.0382 C.ar    
   7 C7             3.4739     2.4163    -0.0466 C.2     
   8 N8             2.8839     3.6252    -0.0340 N.am    
   9 C9             1.5436     3.5095    -0.0277 C.2     
  10 C10            3.5729     4.8418    -0.0269 C.ar    
  11 C11            4.9583     4.8471    -0.1383 C.ar    
  12 C12            5.6309     6.0556    -0.1307 C.ar    
  13 C13            4.8869     7.2283    -0.0108 C.ar    
  14 C14            3.5062     7.1450     0.0962 C.ar    
  15 N15            2.8982     5.9746     0.0803 N.ar    
  16 O16            0.7527     4.4310    -0.0165 O.2     
  17 O17            4.6710     2.2119    -0.0537 O.2     
  18 N18            5.5249     8.4745     0.0019 N.am    
  19 C19            6.7362     8.6055     0.5782 C.2     
  20 C20            7.4565     9.8795     0.4891 C.2     
  21 O21            7.2321     7.6663     1.1726 O.2     
  22 C22            8.6841    10.1465     1.0246 C.2     
  23 C23            8.9858    11.4779     0.6983 C.2     
  24 C24            7.9426    11.9592    -0.0132 C.2     
  25 O25            7.0254    10.9916    -0.1414 O.3     
  26 C26            9.5474     9.1959     1.8133 C.3     
  27 H27           -0.9399     1.8938    -0.0336 H       
  28 H28           -0.9031    -0.5706    -0.0502 H       
  29 H29            1.2328    -1.7802    -0.0699 H       
  30 H30            3.3653    -0.5445    -0.0700 H       
  31 H31            5.5030     3.9189    -0.2292 H       
  32 H32            6.7070     6.0899    -0.2154 H       
  33 H33            2.9223     8.0488     0.1894 H       
  34 H34            5.0953     9.2436    -0.4041 H       
  35 H35            9.8829    12.0165     0.9658 H       
  36 H36            7.8633    12.9584    -0.4155 H       
  37 H37           10.2035     8.6520     1.1337 H       
  38 H38           10.1494     9.7586     2.5268 H       
  39 H39            8.9139     8.4895     2.3497 H       
@<TRIPOS>BOND
   1    1    2 ar
   2    1    6 ar
   3    1   27 1
   4    2    3 ar
   5    2   28 1
   6    3    4 ar
   7    3   29 1
   8    4    5 ar
   9    4   30 1
  10    5    7 1
  11    5    6 ar
  12    6    9 1
  13    7    8 am
  14    7   17 2
  15    8    9 am
  16    8   10 1
  17    9   16 2
  18   10   11 ar
  19   10   15 ar
  20   11   12 ar
  21   11   31 1
  22   12   13 ar
  23   12   32 1
  24   13   14 ar
  25   13   18 1
  26   14   15 ar
  27   14   33 1
  28   18   19 am
  29   18   34 1
  30   19   20 1
  31   19   21 2
  32   20   22 2
  33   20   25 1
  34   22   23 1
  35   22   26 1
  36   23   24 2
  37   23   35 1
  38   24   25 1
  39   24   36 1
  40   26   37 1
  41   26   38 1
  42   26   39 1

#	End of record

