#	Name: ASD05790039
#	Creating user name:	WinNT
#	Creation time:	15. 06. 2019 21:03

#	Modifying user name:	WinNT
#	Modification time:	15. 06. 2019 21:03

#	Program:	/corina/corina34_cracker 3.40 0067  02.08.2006

@<TRIPOS>MOLECULE
ASD05790039
  42   45    0    0    0
SMALL
NO_CHARGES


@<TRIPOS>ATOM
   1 C1            -0.1753     1.4739    -0.5693 C.2     
   2 C2            -0.1532    -0.0033    -0.5731 C.ar    
   3 C3             0.8988    -0.6881    -1.1875 C.ar    
   4 C4             0.9123    -2.0691    -1.1869 C.ar    
   5 C5            -0.1123    -2.7733    -0.5806 C.ar    
   6 C6            -1.1568    -2.1008     0.0290 C.ar    
   7 C7            -1.1801    -0.7216     0.0420 C.ar    
   8 O8             0.7230     2.0966    -1.1015 O.2     
   9 N9            -1.1942     2.1310     0.0193 N.am    
  10 C10           -1.1619     3.5234     0.1191 C.ar    
  11 C11           -2.3411     4.2537     0.0191 C.ar    
  12 C12           -2.3127     5.6276     0.1167 C.ar    
  13 C13           -1.0979     6.2868     0.3168 C.ar    
  14 C14            0.0846     5.5505     0.4174 C.ar    
  15 C15            0.0486     4.1764     0.3241 C.ar    
  16 O16           -2.1299     8.5749     0.3412 O.3     
  17 C17           -1.0636     7.7601     0.4215 C.2     
  18 N18            0.0117     8.4869     0.6087 N.2     
  19 C19           -0.3496     9.7863     0.6517 C.2     
  20 C20           -1.6949     9.8420     0.4837 C.2     
  21 C21            0.5586    10.9434     0.8478 C.ar    
  22 C22            1.9275    10.7383     1.0089 C.ar    
  23 C23            2.7681    11.8189     1.1906 C.ar    
  24 C24            2.2523    13.1037     1.2133 C.ar    
  25 C25            0.8945    13.3117     1.0543 C.ar    
  26 C26            0.0464    12.2389     0.8658 C.ar    
  27 Cl27           4.4738    11.5661     1.3915 Cl      
  28 Cl28           2.1846     0.1946    -1.9498 Cl      
  29 H29            1.7243    -2.6003    -1.6612 H       
  30 H30           -0.0971    -3.8531    -0.5833 H       
  31 H31           -1.9535    -2.6573     0.5001 H       
  32 H32           -1.9937    -0.1987     0.5225 H       
  33 H33           -1.9499     1.6368     0.3736 H       
  34 H34           -3.2802     3.7432    -0.1357 H       
  35 H35           -3.2287     6.1942     0.0382 H       
  36 H36            1.0256     6.0574     0.5717 H       
  37 H37            0.9620     3.6061     0.4061 H       
  38 H38           -2.3027    10.7345     0.4669 H       
  39 H39            2.3302     9.7363     0.9920 H       
  40 H40            2.9127    13.9463     1.3559 H       
  41 H41            0.4973    14.3159     1.0731 H       
  42 H42           -1.0132    12.4034     0.7369 H       
@<TRIPOS>BOND
   1    1    2 1
   2    1    8 2
   3    1    9 am
   4    2    3 ar
   5    2    7 ar
   6    3    4 ar
   7    3   28 1
   8    4    5 ar
   9    4   29 1
  10    5    6 ar
  11    5   30 1
  12    6    7 ar
  13    6   31 1
  14    7   32 1
  15    9   10 1
  16    9   33 1
  17   10   11 ar
  18   10   15 ar
  19   11   12 ar
  20   11   34 1
  21   12   13 ar
  22   12   35 1
  23   13   14 ar
  24   13   17 1
  25   14   15 ar
  26   14   36 1
  27   15   37 1
  28   16   17 1
  29   16   20 1
  30   17   18 2
  31   18   19 1
  32   19   20 2
  33   19   21 1
  34   20   38 1
  35   21   22 ar
  36   21   26 ar
  37   22   23 ar
  38   22   39 1
  39   23   24 ar
  40   23   27 1
  41   24   25 ar
  42   24   40 1
  43   25   26 ar
  44   25   41 1
  45   26   42 1

#	End of record

