#	Name: ASD01813567
#	Creating user name:	WinNT
#	Creation time:	15. 06. 2019 19:30

#	Modifying user name:	WinNT
#	Modification time:	15. 06. 2019 19:30

#	Program:	/corina/corina34_cracker 3.40 0067  02.08.2006

@<TRIPOS>MOLECULE
ASD01813567
  46   50    0    0    0
SMALL
NO_CHARGES


@<TRIPOS>ATOM
   1 C1            -0.0169     1.3823    -0.0159 C.ar    
   2 C2             0.0019    -0.0040    -0.0233 C.ar    
   3 C3             1.1975    -0.6932    -0.0294 C.ar    
   4 C4             2.4040     0.0044    -0.0288 C.ar    
   5 C5             2.3834     1.4096    -0.0218 C.ar    
   6 C6             1.1657     2.0945    -0.0152 C.ar    
   7 N7             3.6050    -0.6734    -0.0339 N.pl3   
   8 C8             4.7898    -0.0496    -0.0326 C.2     
   9 C9             4.8962     1.3266    -0.0256 C.2     
  10 C10            3.6660     2.1351    -0.0213 C.2     
  11 O11            3.7066     3.3531    -0.0155 O.2     
  12 C12            6.2156     1.9738    -0.0234 C.2     
  13 O13            6.3066     3.3188    -0.0165 O.3     
  14 O14            7.2250     1.2964    -0.0277 O.2     
  15 C15            3.5837    -2.1382    -0.0406 C.3     
  16 C16            3.4403    -2.6321    -1.4571 C.ar    
  17 N17            2.2393    -2.7349    -1.9922 N.ar    
  18 C18            2.0661    -3.1634    -3.2327 C.ar    
  19 C19            3.1564    -3.5220    -4.0163 C.ar    
  20 C20            4.4299    -3.4250    -3.4828 C.ar    
  21 C21            4.5689    -2.9659    -2.1804 C.ar    
  22 F22            1.1983    -2.0442    -0.0357 F       
  23 F23            1.1457     3.4454    -0.0089 F       
  24 N24            0.7764    -3.2564    -3.7584 N.pl3   
  25 N25            0.4476    -3.2040    -5.1169 N.2     
  26 C26           -0.8405    -3.3205    -5.2706 C.2     
  27 C27           -1.4381    -3.4614    -3.9460 C.ar    
  28 C28           -0.3736    -3.4201    -3.0252 C.ar    
  29 C29           -2.7487    -3.6185    -3.4823 C.ar    
  30 C30           -2.9821    -3.7248    -2.1416 C.ar    
  31 C31           -1.9308    -3.6779    -1.2344 C.ar    
  32 C32           -0.6418    -3.5324    -1.6640 C.ar    
  33 H33           -0.9607     1.9073    -0.0153 H       
  34 H34           -0.9295    -0.5506    -0.0238 H       
  35 H35            5.6922    -0.6429    -0.0369 H       
  36 H36            7.1958     3.6987    -0.0153 H       
  37 H37            4.5134    -2.5171     0.3839 H       
  38 H38            2.7418    -2.4920     0.5545 H       
  39 H39            3.0120    -3.8720    -5.0278 H       
  40 H40            5.2960    -3.6969    -4.0678 H       
  41 H41            5.5485    -2.8784    -1.7343 H       
  42 H42           -1.3721    -3.3134    -6.2107 H       
  43 H43           -3.5712    -3.6552    -4.1812 H       
  44 H44           -3.9934    -3.8461    -1.7826 H       
  45 H45           -2.1343    -3.7633    -0.1772 H       
  46 H46            0.1665    -3.4978    -0.9485 H       
@<TRIPOS>BOND
   1    1    2 ar
   2    1    6 ar
   3    1   33 1
   4    2    3 ar
   5    2   34 1
   6    3    4 ar
   7    3   22 1
   8    4    5 ar
   9    4    7 1
  10    5    6 ar
  11    5   10 1
  12    6   23 1
  13    7    8 1
  14    7   15 1
  15    8    9 2
  16    8   35 1
  17    9   10 1
  18    9   12 1
  19   10   11 2
  20   12   13 1
  21   12   14 2
  22   13   36 1
  23   15   16 1
  24   15   37 1
  25   15   38 1
  26   16   17 ar
  27   16   21 ar
  28   17   18 ar
  29   18   19 ar
  30   18   24 1
  31   19   20 ar
  32   19   39 1
  33   20   21 ar
  34   20   40 1
  35   21   41 1
  36   24   25 1
  37   24   28 1
  38   25   26 2
  39   26   27 1
  40   26   42 1
  41   27   28 ar
  42   27   29 ar
  43   28   32 ar
  44   29   30 ar
  45   29   43 1
  46   30   31 ar
  47   30   44 1
  48   31   32 ar
  49   31   45 1
  50   32   46 1

#	End of record

