#	Name: ASD02500749
#	Creating user name:	WinNT
#	Creation time:	15. 06. 2019 20:23

#	Modifying user name:	WinNT
#	Modification time:	15. 06. 2019 20:23

#	Program:	/corina/corina34_cracker 3.40 0067  02.08.2006

@<TRIPOS>MOLECULE
ASD02500749
  51   54    0    0    0
SMALL
NO_CHARGES


@<TRIPOS>ATOM
   1 N1            -0.0179     1.4654     0.0101 N.am    
   2 C2             0.0021    -0.0041     0.0020 C.3     
   3 C3             0.8261    -0.4764    -1.2022 C.3     
   4 N4             2.1040     0.2493    -1.2105 N.am    
   5 C5             2.0841     1.7188    -1.2024 C.3     
   6 C6             1.2601     2.1912     0.0018 C.3     
   7 S7             3.5407    -0.5740    -1.2281 S.o2    
   8 O8             4.5153     0.3081    -0.6883 O.2     
   9 O9             3.2726    -1.8605    -0.6876 O.2     
  10 C10            3.9775    -0.8248    -2.9166 C.ar    
  11 C11            4.7441     0.1156    -3.5794 C.ar    
  12 C12            5.0867    -0.0811    -4.9038 C.ar    
  13 C13            4.6631    -1.2186    -5.5658 C.ar    
  14 C14            3.8974    -2.1592    -4.9030 C.ar    
  15 C15            3.5584    -1.9645    -3.5769 C.ar    
  16 C16            5.9215     0.9444    -5.6266 C.3     
  17 F17            7.2771     0.6343    -5.4732 F       
  18 F18            5.5928     0.9390    -6.9864 F       
  19 F19            5.6697     2.2121    -5.0910 F       
  20 S20           -1.4546     2.2888     0.0214 S.o2    
  21 O21           -1.1840     3.5755    -0.5173 O.2     
  22 O22           -2.4267     1.4070    -0.5232 O.2     
  23 O23           -2.9591     3.1084     5.6604 O.3     
  24 C24           -2.6024     2.9304     4.3590 C.ar    
  25 C25           -1.8259     3.8756     3.6985 C.ar    
  26 O26           -1.4003     4.9983     4.3395 O.3     
  27 C27           -2.0797     5.3437     5.5516 C.3     
  28 C28           -2.2116     4.0755     6.4060 C.3     
  29 C29           -1.4776     3.6762     2.3712 C.ar    
  30 C30           -1.8991     2.5390     1.7080 C.ar    
  31 C31           -2.6690     1.5981     2.3653 C.ar    
  32 C32           -3.0212     1.7916     3.6880 C.ar    
  33 H33            0.4576    -0.3688     0.9227 H       
  34 H34           -1.0165    -0.3833    -0.0803 H       
  35 H35            1.0139    -1.5469    -1.1197 H       
  36 H36            0.2810    -0.2679    -2.1228 H       
  37 H37            3.1027     2.0980    -1.1201 H       
  38 H38            1.6286     2.0836    -2.1231 H       
  39 H39            1.0723     3.2617    -0.0807 H       
  40 H40            1.8051     1.9827     0.9224 H       
  41 H41            5.0751     1.0041    -3.0623 H       
  42 H42            4.9301    -1.3720    -6.6010 H       
  43 H43            3.5662    -3.0475    -5.4202 H       
  44 H44            2.9632    -2.7012    -3.0578 H       
  45 H45           -1.5049     6.0943     6.0941 H       
  46 H46           -3.0700     5.7353     5.3192 H       
  47 H47           -2.7350     4.3096     7.3330 H       
  48 H48           -1.2214     3.6799     6.6322 H       
  49 H49           -0.8763     4.4101     1.8552 H       
  50 H50           -2.9964     0.7103     1.8447 H       
  51 H51           -3.6229     1.0548     4.1994 H       
@<TRIPOS>BOND
   1    1    2 1
   2    1    6 1
   3    1   20 am
   4    2    3 1
   5    2   33 1
   6    2   34 1
   7    3    4 1
   8    3   35 1
   9    3   36 1
  10    4    5 1
  11    4    7 am
  12    5    6 1
  13    5   37 1
  14    5   38 1
  15    6   39 1
  16    6   40 1
  17    7    8 2
  18    7    9 2
  19    7   10 1
  20   10   11 ar
  21   10   15 ar
  22   11   12 ar
  23   11   41 1
  24   12   13 ar
  25   12   16 1
  26   13   14 ar
  27   13   42 1
  28   14   15 ar
  29   14   43 1
  30   15   44 1
  31   16   17 1
  32   16   18 1
  33   16   19 1
  34   20   21 2
  35   20   22 2
  36   20   30 1
  37   23   24 1
  38   23   28 1
  39   24   25 ar
  40   24   32 ar
  41   25   26 1
  42   25   29 ar
  43   26   27 1
  44   27   28 1
  45   27   45 1
  46   27   46 1
  47   28   47 1
  48   28   48 1
  49   29   30 ar
  50   29   49 1
  51   30   31 ar
  52   31   32 ar
  53   31   50 1
  54   32   51 1

#	End of record

