#	Name: ASD03080133
#	Creating user name:	WinNT
#	Creation time:	15. 06. 2019 20:26

#	Modifying user name:	WinNT
#	Modification time:	15. 06. 2019 20:26

#	Program:	/corina/corina34_cracker 3.40 0067  02.08.2006

@<TRIPOS>MOLECULE
ASD03080133
  50   54    0    0    0
SMALL
NO_CHARGES


@<TRIPOS>ATOM
   1 C1            -0.0187     1.5296     0.0105 C.3     
   2 C2             0.0021    -0.0041     0.0020 C.3     
   3 C3             1.4239     2.0435    -0.0006 C.3     
   4 N4             2.3478     0.9014    -0.0159 N.3     
   5 C5             2.1911     0.0794     1.1920 C.3     
   6 C6             0.7703    -0.4897     1.2377 C.3     
   7 C7             4.2307     2.5948     1.8364 C.ar    
   8 C8             3.8701     1.4038     2.4474 C.ar    
   9 C9             2.4357     0.9419     2.4318 C.3     
  10 C10            5.5623     2.9799     1.8754 C.ar    
  11 C11            6.4791     2.1694     2.5174 C.ar    
  12 N12            6.1000     1.0425     3.0881 N.ar    
  13 C13            4.8429     0.6451     3.0707 C.ar    
  14 C14            0.7461    -0.4763    -1.2535 C.3     
  15 C15            2.1675     0.0927    -1.2294 C.3     
  16 N16            0.8276    -1.9536     1.2360 N.am    
  17 C17           -0.1867    -2.6683     1.7622 C.2     
  18 C18           -0.1292    -4.1370     1.7605 C.2     
  19 O19           -1.1498    -2.0979     2.2385 O.2     
  20 O20            0.8854    -4.8738     1.2617 O.3     
  21 C21           -1.0864    -4.9572     2.2659 C.2     
  22 C22           -0.6073    -6.3216     2.0475 C.ar    
  23 C23            0.6408    -6.1902     1.4107 C.ar    
  24 C24           -1.1174    -7.5903     2.3337 C.ar    
  25 C25           -0.4010    -8.7015     1.9897 C.ar    
  26 C26            0.8295    -8.5778     1.3587 C.ar    
  27 C27            1.3516    -7.3355     1.0705 C.ar    
  28 H28           -0.5425     1.8927    -0.8738 H       
  29 H29           -0.5255     1.8831     0.9084 H       
  30 H30           -1.0163    -0.3928     0.0027 H       
  31 H31            1.5856     2.6540    -0.8889 H       
  32 H32            1.6028     2.6440     0.8913 H       
  33 H33            2.9104    -0.7394     1.1705 H       
  34 H34            0.2669    -0.1431     2.1402 H       
  35 H35            3.4928     3.2061     1.3380 H       
  36 H36            1.7752     1.8087     2.4074 H       
  37 H37            2.2330     0.3557     3.3280 H       
  38 H38            5.8789     3.9014     1.4096 H       
  39 H39            7.5180     2.4622     2.5522 H       
  40 H40            4.5701    -0.2838     3.5494 H       
  41 H41            0.7888    -1.5654    -1.2648 H       
  42 H42            0.2252    -0.1202    -2.1423 H       
  43 H43            2.3243     0.7169    -2.1091 H       
  44 H44            2.8871    -0.7261    -1.2311 H       
  45 H45            1.5956    -2.4085     0.8562 H       
  46 H46           -2.0135    -4.6616     2.7345 H       
  47 H47           -2.0737    -7.6921     2.8251 H       
  48 H48           -0.7943    -9.6828     2.2105 H       
  49 H49            1.3849    -9.4651     1.0929 H       
  50 H50            2.3098    -7.2519     0.5793 H       
@<TRIPOS>BOND
   1    1    2 1
   2    1    3 1
   3    1   28 1
   4    1   29 1
   5    2   14 1
   6    2    6 1
   7    2   30 1
   8    3    4 1
   9    3   31 1
  10    3   32 1
  11    4    5 1
  12    4   15 1
  13    5    6 1
  14    5    9 1
  15    5   33 1
  16    6   16 1
  17    6   34 1
  18    7    8 ar
  19    7   10 ar
  20    7   35 1
  21    8    9 1
  22    8   13 ar
  23    9   36 1
  24    9   37 1
  25   10   11 ar
  26   10   38 1
  27   11   12 ar
  28   11   39 1
  29   12   13 ar
  30   13   40 1
  31   14   15 1
  32   14   41 1
  33   14   42 1
  34   15   43 1
  35   15   44 1
  36   16   17 am
  37   16   45 1
  38   17   18 1
  39   17   19 2
  40   18   20 1
  41   18   21 2
  42   20   23 1
  43   21   22 1
  44   21   46 1
  45   22   23 ar
  46   22   24 ar
  47   23   27 ar
  48   24   25 ar
  49   24   47 1
  50   25   26 ar
  51   25   48 1
  52   26   27 ar
  53   26   49 1
  54   27   50 1

#	End of record

