#	Name: ASD03330738
#	Creating user name:	WinNT
#	Creation time:	15. 06. 2019 20:37

#	Modifying user name:	WinNT
#	Modification time:	15. 06. 2019 20:37

#	Program:	/corina/corina34_cracker 3.40 0067  02.08.2006

@<TRIPOS>MOLECULE
ASD03330738
  77   80    0    0    0
SMALL
NO_CHARGES


@<TRIPOS>ATOM
   1 C1             0.2111     2.6815     0.4022 C.2     
   2 N2            -0.0807     1.3836     0.6832 N.pl3   
   3 C3             1.5665     2.7763     0.3105 C.2     
   4 N4             2.0809     1.5440     0.5173 N.2     
   5 C5             1.0992     0.7007     0.7361 C.2     
   6 C6             1.2473    -0.7475     0.9960 C.ar    
   7 C7             2.3347     4.0030     0.0344 C.2     
   8 O8             1.7546     5.0584    -0.1359 O.2     
   9 C9             4.4438     5.1752    -0.3041 C.3     
  10 N10            3.6801     3.9556    -0.0295 N.am    
  11 C11            4.5262     5.3960    -1.8158 C.3     
  12 C12            3.1143     5.4247    -2.4047 C.3     
  13 C13            5.2243     6.7275    -2.0995 C.3     
  14 C14            5.8344     5.0347     0.2595 C.2     
  15 O15            6.2120     3.9624     0.6819 O.2     
  16 C16           -1.4253     0.8427     0.9004 C.3     
  17 C17           -2.3547     1.3470    -0.2081 C.3     
  18 C18           -2.9539     2.6911     0.1930 C.3     
  19 N19           -2.0049     3.4758     0.9852 N.3     
  20 C20           -0.7935     3.7882     0.2124 C.3     
  21 C21            5.3223     4.2564    -2.4550 C.3     
  22 C22            0.5504    -1.3457     2.0465 C.ar    
  23 C23            2.0813    -1.5238     0.1870 C.ar    
  24 C24            2.2148    -2.8769     0.4360 C.ar    
  25 C25            1.5242    -3.4614     1.4831 C.ar    
  26 C26            0.6922    -2.6967     2.2844 C.ar    
  27 F27            2.7548    -0.9536    -0.8358 F       
  28 Cl28           1.6961    -5.1614     1.7898 Cl      
  29 C29           -2.6333     4.7009     1.4973 C.3     
  30 C30           -3.2664     5.4725     0.3372 C.3     
  31 C31           -3.8904     6.7662     0.8698 C.3     
  32 N32           -4.8253     6.4297     1.9521 N.am    
  33 C33           -4.3426     5.6129     3.0740 C.3     
  34 C34           -3.7135     4.3321     2.5167 C.3     
  35 N35            6.6583     6.1008     0.2943 N.am    
  36 C36            8.0355     5.9469     0.7695 C.3     
  37 C37           -6.1012     6.8623     1.9167 C.2     
  38 O38           -6.8340     6.6678     2.8634 O.2     
  39 C39           -6.6174     7.5877     0.7009 C.3     
  40 H40            3.9476     6.0271     0.1610 H       
  41 H41            4.1427     3.1139     0.1062 H       
  42 H42            2.5472     6.2365    -1.9493 H       
  43 H43            3.1730     5.5820    -3.4817 H       
  44 H44            2.6170     4.4761    -2.2026 H       
  45 H45            6.2368     6.7000    -1.6968 H       
  46 H46            5.2658     6.8939    -3.1760 H       
  47 H47            4.6676     7.5374    -1.6279 H       
  48 H48           -1.3881    -0.2464     0.8772 H       
  49 H49           -1.7996     1.1749     1.8687 H       
  50 H50           -1.7873     1.4642    -1.1314 H       
  51 H51           -3.1562     0.6253    -0.3654 H       
  52 H52           -3.2159     3.2485    -0.7063 H       
  53 H53           -3.8552     2.5195     0.7815 H       
  54 H54           -0.3699     4.7292     0.5635 H       
  55 H55           -1.0471     3.8731    -0.8443 H       
  56 H56            4.8249     3.3078    -2.2529 H       
  57 H57            5.3809     4.4137    -3.5320 H       
  58 H58            6.3281     4.2359    -2.0355 H       
  59 H59           -0.0988    -0.7516     2.6726 H       
  60 H60            2.8588    -3.4790    -0.1879 H       
  61 H61            0.1561    -3.1591     3.1000 H       
  62 H62           -1.8780     5.3229     1.9778 H       
  63 H63           -2.5006     5.7145    -0.3998 H       
  64 H64           -4.0391     4.8605    -0.1281 H       
  65 H65           -3.1065     7.4189     1.2538 H       
  66 H66           -4.4276     7.2705     0.0665 H       
  67 H67           -3.5955     6.1716     3.6379 H       
  68 H68           -5.1782     5.3562     3.7252 H       
  69 H69           -4.4820     3.7309     2.0310 H       
  70 H70           -3.2659     3.7625     3.3311 H       
  71 H71            6.3394     6.9699     0.0047 H       
  72 H72            8.0268     5.5872     1.7984 H       
  73 H73            8.5597     5.2294     0.1382 H       
  74 H74            8.5448     6.9096     0.7255 H       
  75 H75           -5.8554     7.5786    -0.0784 H       
  76 H76           -7.5164     7.0910     0.3359 H       
  77 H77           -6.8539     8.6183     0.9658 H       
@<TRIPOS>BOND
   1    1    2 1
   2    1    3 2
   3    1   20 1
   4    2   16 1
   5    2    5 1
   6    3    4 1
   7    3    7 1
   8    4    5 2
   9    5    6 1
  10    6   23 ar
  11    6   22 ar
  12    7    8 2
  13    7   10 am
  14    9   10 1
  15    9   11 1
  16    9   14 1
  17    9   40 1
  18   10   41 1
  19   11   12 1
  20   11   13 1
  21   11   21 1
  22   12   42 1
  23   12   43 1
  24   12   44 1
  25   13   45 1
  26   13   46 1
  27   13   47 1
  28   14   15 2
  29   14   35 am
  30   16   17 1
  31   16   48 1
  32   16   49 1
  33   17   18 1
  34   17   50 1
  35   17   51 1
  36   18   19 1
  37   18   52 1
  38   18   53 1
  39   19   20 1
  40   19   29 1
  41   20   54 1
  42   20   55 1
  43   21   56 1
  44   21   57 1
  45   21   58 1
  46   22   26 ar
  47   22   59 1
  48   23   24 ar
  49   23   27 1
  50   24   25 ar
  51   24   60 1
  52   25   26 ar
  53   25   28 1
  54   26   61 1
  55   29   30 1
  56   29   34 1
  57   29   62 1
  58   30   31 1
  59   30   63 1
  60   30   64 1
  61   31   32 1
  62   31   65 1
  63   31   66 1
  64   32   33 1
  65   32   37 am
  66   33   34 1
  67   33   67 1
  68   33   68 1
  69   34   69 1
  70   34   70 1
  71   35   36 1
  72   35   71 1
  73   36   72 1
  74   36   73 1
  75   36   74 1
  76   37   38 2
  77   37   39 1
  78   39   75 1
  79   39   76 1
  80   39   77 1

#	End of record

