#	Name: ASD02030508
#	Creating user name:	WinNT
#	Creation time:	15. 06. 2019 20:15

#	Modifying user name:	WinNT
#	Modification time:	15. 06. 2019 20:15

#	Program:	/corina/corina34_cracker 3.40 0067  02.08.2006

@<TRIPOS>MOLECULE
ASD02030508
  58   61    0    0    0
SMALL
NO_CHARGES


@<TRIPOS>ATOM
   1 N1            -0.1361     1.6276    -0.2922 N.am    
   2 C2            -0.2333     0.1642    -0.3865 C.3     
   3 C3            -1.0511    -0.3505     0.8046 C.3     
   4 N4            -2.2884     0.4369     0.9000 N.am    
   5 C5            -2.1912     1.9003     0.9943 C.3     
   6 C6            -1.3732     2.4145    -0.1912 C.3     
   7 C7             1.0662     2.2366    -0.2927 C.2     
   8 C8             2.3038     1.4293    -0.2474 C.2     
   9 N9             3.5265     1.8947    -0.1091 N.2     
  10 N10            2.3776     0.0885    -0.3345 N.2     
  11 C11            3.6425    -0.2375    -0.2527 C.2     
  12 N12            4.3490     0.9028    -0.1119 N.pl3   
  13 O13            1.1329     3.4498    -0.3304 O.2     
  14 C14           -3.4907    -0.1722     0.9005 C.2     
  15 C15           -3.5718    -1.6512     0.8700 C.ar    
  16 O16           -4.5081     0.4917     0.9259 O.2     
  17 C17           -1.0290     3.8897     0.0238 C.3     
  18 C18           -2.1813     2.2548    -1.4805 C.3     
  19 C19            5.7422     0.9935     0.0102 C.ar    
  20 C20            6.3486     2.2343     0.1499 C.ar    
  21 C21            7.7232     2.3203     0.2706 C.ar    
  22 C22            8.4935     1.1709     0.2517 C.ar    
  23 C23            7.8912    -0.0660     0.1126 C.ar    
  24 C24            6.5181    -0.1582    -0.0026 C.ar    
  25 Cl25           8.4832     3.8712     0.4455 Cl      
  26 N26           -2.4990    -2.3753     1.1685 N.ar    
  27 C27           -2.5299    -3.6941     1.1531 C.ar    
  28 C28           -3.6978    -4.3754     0.8205 C.ar    
  29 C29           -4.8356    -3.6545     0.5037 C.ar    
  30 C30           -4.7729    -2.2689     0.5344 C.ar    
  31 O31           -1.4105    -4.3946     1.4644 O.3     
  32 C32           -0.2438    -3.6392     1.7965 C.3     
  33 C33            0.9082    -4.5940     2.1157 C.3     
  34 H34           -0.7300    -0.1103    -1.3171 H       
  35 H35            0.7656    -0.2713    -0.3599 H       
  36 H36           -1.2970    -1.4014     0.6527 H       
  37 H37           -0.4732    -0.2363     1.7217 H       
  38 H38           -3.1901     2.3357     0.9676 H       
  39 H39           -1.6945     2.1747     1.9249 H       
  40 H40            4.0469    -1.2383    -0.2883 H       
  41 H41           -0.2736     3.9765     0.8048 H       
  42 H42           -0.6426     4.3116    -0.9040 H       
  43 H43           -1.9257     4.4320     0.3238 H       
  44 H44           -3.1058     2.8269    -1.4031 H       
  45 H45           -1.5963     2.6219    -2.3238 H       
  46 H46           -2.4175     1.2017    -1.6332 H       
  47 H47            5.7474     3.1314     0.1640 H       
  48 H48            9.5672     1.2401     0.3454 H       
  49 H49            8.4950    -0.9613     0.0978 H       
  50 H50            6.0486    -1.1248    -0.1109 H       
  51 H51           -3.7153    -5.4552     0.8097 H       
  52 H52           -5.7538    -4.1596     0.2424 H       
  53 H53           -5.6431    -1.6768     0.2924 H       
  54 H54            0.0318    -3.0065     0.9527 H       
  55 H55           -0.4503    -3.0154     2.6662 H       
  56 H56            0.6326    -5.2267     2.9594 H       
  57 H57            1.1147    -5.2179     1.2460 H       
  58 H58            1.7981    -4.0179     2.3690 H       
@<TRIPOS>BOND
   1    1    2 1
   2    1    7 am
   3    1    6 1
   4    2    3 1
   5    2   34 1
   6    2   35 1
   7    3    4 1
   8    3   36 1
   9    3   37 1
  10    4    5 1
  11    4   14 am
  12    5    6 1
  13    5   38 1
  14    5   39 1
  15    6   17 1
  16    6   18 1
  17    7    8 1
  18    7   13 2
  19    8    9 2
  20    8   10 1
  21    9   12 1
  22   10   11 2
  23   11   12 1
  24   11   40 1
  25   12   19 1
  26   14   15 1
  27   14   16 2
  28   15   26 ar
  29   15   30 ar
  30   17   41 1
  31   17   42 1
  32   17   43 1
  33   18   44 1
  34   18   45 1
  35   18   46 1
  36   19   20 ar
  37   19   24 ar
  38   20   21 ar
  39   20   47 1
  40   21   22 ar
  41   21   25 1
  42   22   23 ar
  43   22   48 1
  44   23   24 ar
  45   23   49 1
  46   24   50 1
  47   26   27 ar
  48   27   28 ar
  49   27   31 1
  50   28   29 ar
  51   28   51 1
  52   29   30 ar
  53   29   52 1
  54   30   53 1
  55   31   32 1
  56   32   33 1
  57   32   54 1
  58   32   55 1
  59   33   56 1
  60   33   57 1
  61   33   58 1

#	End of record

