#	Name: ASD01883973
#	Creating user name:	WinNT
#	Creation time:	15. 06. 2019 19:47

#	Modifying user name:	WinNT
#	Modification time:	15. 06. 2019 19:47

#	Program:	/corina/corina34_cracker 3.40 0067  02.08.2006

@<TRIPOS>MOLECULE
ASD01883973
  49   52    0    0    0
SMALL
NO_CHARGES


@<TRIPOS>ATOM
   1 C1            -0.0187     1.5258     0.0104 C.3     
   2 C2             0.0021    -0.0041     0.0020 C.3     
   3 C3             0.7182    -0.4975    -1.2568 C.3     
   4 C4             0.7421    -0.5109     1.2415 C.3     
   5 F5             0.8608    -1.9034     1.1769 F       
   6 F6             2.0165     0.0640     1.2914 F       
   7 C7            -0.0298    -0.1295     2.4784 C.ar    
   8 C8             0.2205     1.0808     3.1005 C.ar    
   9 C9            -0.4822     1.4359     4.2333 C.ar    
  10 C10           -1.4479     0.5713     4.7514 C.ar    
  11 C11           -1.6958    -0.6480     4.1186 C.ar    
  12 C12           -0.9896    -0.9885     2.9835 C.ar    
  13 C13           -2.2043     0.9450     5.9652 C.2     
  14 C14           -1.6900     1.4923     7.1230 C.2     
  15 C15           -0.2416     1.8199     7.3794 C.3     
  16 N16           -2.6934     1.6806     7.9708 N.2     
  17 C17           -3.8239     1.2829     7.4177 C.2     
  18 C18           -5.2718     1.1555     7.6551 C.2     
  19 O19           -5.8482     1.4799     8.6758 O.2     
  20 N20           -5.8576     0.6246     6.5659 N.am    
  21 C21           -7.2861     0.3406     6.4076 C.3     
  22 C22           -7.9873     1.5658     5.8175 C.3     
  23 C23           -8.6290     1.4157     4.4367 C.3     
  24 C24           -9.5105     1.5117     5.6836 C.3     
  25 C25           -4.8131     0.3811     5.5649 C.3     
  26 N26           -3.5494     0.8223     6.1592 N.pl3   
  27 H27            1.0039     1.9031     0.0027 H       
  28 H28           -0.5459     1.8868    -0.8726 H       
  29 H29           -0.5289     1.8773     0.9072 H       
  30 H30           -1.0205    -0.3814     0.0098 H       
  31 H31            1.7408    -0.1202    -1.2645 H       
  32 H32            0.7330    -1.5874    -1.2628 H       
  33 H33            0.1910    -0.1364    -2.1398 H       
  34 H34            0.9680     1.7488     2.6986 H       
  35 H35           -0.2853     2.3805     4.7184 H       
  36 H36           -2.4417    -1.3214     4.5144 H       
  37 H37           -1.1835    -1.9296     2.4904 H       
  38 H38           -0.0382     2.8420     7.0602 H       
  39 H39           -0.0302     1.7230     8.4443 H       
  40 H40            0.3913     1.1315     6.8192 H       
  41 H41           -7.4155    -0.5097     5.7380 H       
  42 H42           -7.7200     0.1068     7.3798 H       
  43 H43           -7.5374     2.5281     6.0619 H       
  44 H44           -8.6012     2.2793     3.7723 H       
  45 H45           -8.5516     0.4441     3.9487 H       
  46 H46          -10.0130     0.6033     6.0158 H       
  47 H47          -10.0626     2.4385     5.8394 H       
  48 H48           -4.7659    -0.6814     5.3260 H       
  49 H49           -5.0188     0.9578     4.6632 H       
@<TRIPOS>BOND
   1    1    2 1
   2    1   27 1
   3    1   28 1
   4    1   29 1
   5    2    3 1
   6    2    4 1
   7    2   30 1
   8    3   31 1
   9    3   32 1
  10    3   33 1
  11    4    5 1
  12    4    6 1
  13    4    7 1
  14    7   12 ar
  15    7    8 ar
  16    8    9 ar
  17    8   34 1
  18    9   10 ar
  19    9   35 1
  20   10   11 ar
  21   10   13 1
  22   11   12 ar
  23   11   36 1
  24   12   37 1
  25   13   26 1
  26   13   14 2
  27   14   15 1
  28   14   16 1
  29   15   38 1
  30   15   39 1
  31   15   40 1
  32   16   17 2
  33   17   26 1
  34   17   18 1
  35   18   19 2
  36   18   20 am
  37   20   21 1
  38   20   25 1
  39   21   22 1
  40   21   41 1
  41   21   42 1
  42   22   24 1
  43   22   23 1
  44   22   43 1
  45   23   24 1
  46   23   44 1
  47   23   45 1
  48   24   46 1
  49   24   47 1
  50   25   26 1
  51   25   48 1
  52   25   49 1

#	End of record

