#	Name: ASD06390013
#	Creating user name:	WinNT
#	Creation time:	15. 06. 2019 21:06

#	Modifying user name:	WinNT
#	Modification time:	15. 06. 2019 21:06

#	Program:	/corina/corina34_cracker 3.40 0067  02.08.2006

@<TRIPOS>MOLECULE
ASD06390013
  45   46    0    0    0
SMALL
NO_CHARGES


@<TRIPOS>ATOM
   1 C1            -0.0187     1.5258     0.0104 C.3     
   2 C2             0.0021    -0.0041     0.0020 C.3     
   3 C3            -1.4117    -0.5257     0.0127 C.2     
   4 O4            -2.3441     0.2498     0.0258 O.2     
   5 N5            -1.6400    -1.8540     0.0078 N.am    
   6 C6            -3.0134    -2.3769     0.0181 C.3     
   7 C7            -3.1881    -3.3191    -1.1795 C.3     
   8 N8            -2.0680    -4.2704    -1.1958 N.am    
   9 C9            -0.6946    -3.7475    -1.2061 C.3     
  10 C10           -0.5200    -2.8053    -0.0142 C.3     
  11 C11           -2.2963    -5.5987    -1.2008 C.2     
  12 O12           -3.4341    -6.0185    -1.1918 O.2     
  13 C13           -1.1378    -6.5623    -1.2175 C.3     
  14 N14           -1.6455    -7.9365    -1.2200 N.pl3   
  15 C15           -0.7508    -9.0135    -1.2348 C.ar    
  16 C16            0.6163    -8.7810    -1.2471 C.ar    
  17 C17            1.4987    -9.8465    -1.2617 C.ar    
  18 Cl18           3.2099    -9.5542    -1.2765 Cl      
  19 C19            1.0197   -11.1451    -1.2641 C.ar    
  20 C20           -0.3438   -11.3830    -1.2518 C.ar    
  21 C21           -1.2320   -10.3211    -1.2314 C.ar    
  22 O22           -2.5722   -10.5538    -1.2193 O.3     
  23 C23           -2.9936   -11.9193    -1.2288 C.3     
  24 Cl24           2.1314   -12.4784    -1.2830 Cl      
  25 H25            1.0039     1.9031     0.0027 H       
  26 H26           -0.5459     1.8868    -0.8726 H       
  27 H27           -0.5289     1.8773     0.9072 H       
  28 H28            0.5123    -0.3556    -0.8948 H       
  29 H29            0.5293    -0.3651     0.8851 H       
  30 H30           -3.1891    -2.9252     0.9436 H       
  31 H31           -3.7201    -1.5507    -0.0604 H       
  32 H32           -4.1282    -3.8623    -1.0835 H       
  33 H33           -3.1899    -2.7402    -2.1031 H       
  34 H34            0.0120    -4.5737    -1.1277 H       
  35 H35           -0.5189    -3.1992    -2.1316 H       
  36 H36            0.4203    -2.2628    -0.1115 H       
  37 H37           -0.5186    -3.3819     0.9108 H       
  38 H38           -0.5387    -6.3947    -2.1126 H       
  39 H39           -0.5210    -6.4044    -0.3328 H       
  40 H40           -2.6016    -8.1003    -1.2114 H       
  41 H41            0.9920    -7.7684    -1.2456 H       
  42 H42           -0.7148   -12.3973    -1.2537 H       
  43 H43           -2.6194   -12.4088    -2.1280 H       
  44 H44           -2.6003   -12.4271    -0.3482 H       
  45 H45           -4.0827   -11.9635    -1.2176 H       
@<TRIPOS>BOND
   1    1    2 1
   2    1   25 1
   3    1   26 1
   4    1   27 1
   5    2    3 1
   6    2   28 1
   7    2   29 1
   8    3    4 2
   9    3    5 am
  10    5    6 1
  11    5   10 1
  12    6    7 1
  13    6   30 1
  14    6   31 1
  15    7    8 1
  16    7   32 1
  17    7   33 1
  18    8    9 1
  19    8   11 am
  20    9   10 1
  21    9   34 1
  22    9   35 1
  23   10   36 1
  24   10   37 1
  25   11   12 2
  26   11   13 1
  27   13   14 1
  28   13   38 1
  29   13   39 1
  30   14   15 1
  31   14   40 1
  32   15   16 ar
  33   15   21 ar
  34   16   17 ar
  35   16   41 1
  36   17   18 1
  37   17   19 ar
  38   19   20 ar
  39   19   24 1
  40   20   21 ar
  41   20   42 1
  42   21   22 1
  43   22   23 1
  44   23   43 1
  45   23   44 1
  46   23   45 1

#	End of record

