#	Name: ASD02560244
#	Creating user name:	WinNT
#	Creation time:	15. 06. 2019 20:24

#	Modifying user name:	WinNT
#	Modification time:	15. 06. 2019 20:24

#	Program:	/corina/corina34_cracker 3.40 0067  02.08.2006

@<TRIPOS>MOLECULE
ASD02560244
  39   41    0    0    0
SMALL
NO_CHARGES


@<TRIPOS>ATOM
   1 C1             0.0340     1.3401     0.4055 C.2     
   2 N2             0.0525    -0.0065     0.3957 N.2     
   3 C3             1.2618    -0.4060     0.0867 C.2     
   4 O4             2.0333     0.6755    -0.1054 O.3     
   5 C5             1.2659     1.7693     0.0939 C.2     
   6 C6             1.7111     3.2049    -0.0143 C.3     
   7 N7             1.6741    -1.7212    -0.0228 N.pl3   
   8 C8             0.7420    -2.7572     0.0860 C.ar    
   9 C9            -0.5747    -2.5530    -0.3068 C.ar    
  10 C10           -1.4931    -3.5787    -0.1980 C.ar    
  11 C11           -1.1033    -4.8077     0.3019 C.ar    
  12 C12            0.2066    -5.0142     0.6944 C.ar    
  13 C13            1.1316    -3.9949     0.5820 C.ar    
  14 C14            2.2095     3.6787     1.3266 C.ar    
  15 C15            3.5440     3.5321     1.6601 C.ar    
  16 C16            4.0010     3.9672     2.8914 C.ar    
  17 C17            3.1244     4.5484     3.7882 C.ar    
  18 C18            1.7908     4.6948     3.4558 C.ar    
  19 C19            1.3339     4.2656     2.2224 C.ar    
  20 Cl20          -0.3412     4.4495     1.8050 Cl      
  21 Cl21           4.6451     2.8017     0.5340 Cl      
  22 C22           -2.1182    -6.7403    -0.8746 C.3     
  23 C23           -2.1083    -5.9245     0.4197 C.3     
  24 H24           -0.8213     1.9633     0.6212 H       
  25 H25            2.5134     3.2822    -0.7481 H       
  26 H26            0.8704     3.8234    -0.3287 H       
  27 H27            2.6101    -1.9250    -0.1750 H       
  28 H28           -0.8799    -1.5932    -0.6967 H       
  29 H29           -2.5169    -3.4206    -0.5032 H       
  30 H30            0.5076    -5.9751     1.0850 H       
  31 H31            2.1544    -4.1568     0.8886 H       
  32 H32            5.0428     3.8525     3.1519 H       
  33 H33            3.4816     4.8879     4.7492 H       
  34 H34            1.1062     5.1483     4.1573 H       
  35 H35           -1.1272    -7.1601    -1.0471 H       
  36 H36           -2.8452    -7.5480    -0.7894 H       
  37 H37           -2.3894    -6.0940    -1.7094 H       
  38 H38           -1.8371    -6.5708     1.2545 H       
  39 H39           -3.0993    -5.5047     0.5922 H       
@<TRIPOS>BOND
   1    1    2 1
   2    1    5 2
   3    1   24 1
   4    2    3 2
   5    3    4 1
   6    3    7 1
   7    4    5 1
   8    5    6 1
   9    6   14 1
  10    6   25 1
  11    6   26 1
  12    7    8 1
  13    7   27 1
  14    8    9 ar
  15    8   13 ar
  16    9   10 ar
  17    9   28 1
  18   10   11 ar
  19   10   29 1
  20   11   12 ar
  21   11   23 1
  22   12   13 ar
  23   12   30 1
  24   13   31 1
  25   14   15 ar
  26   14   19 ar
  27   15   16 ar
  28   15   21 1
  29   16   17 ar
  30   16   32 1
  31   17   18 ar
  32   17   33 1
  33   18   19 ar
  34   18   34 1
  35   19   20 1
  36   22   23 1
  37   22   35 1
  38   22   36 1
  39   22   37 1
  40   23   38 1
  41   23   39 1

#	End of record

