#	Name: ASD08710067
#	Creating user name:	WinNT
#	Creation time:	15. 06. 2019 21:19

#	Modifying user name:	WinNT
#	Modification time:	15. 06. 2019 21:19

#	Program:	/corina/corina34_cracker 3.40 0067  02.08.2006

@<TRIPOS>MOLECULE
ASD08710067
  53   54    0    0    0
SMALL
NO_CHARGES


@<TRIPOS>ATOM
   1 C1             0.0083     1.4060     0.4449 C.ar    
   2 C2             0.0298     0.1212    -0.0955 C.ar    
   3 C3             1.2244    -0.5346    -0.2207 C.ar    
   4 C4             2.3932     0.1164     0.2034 C.ar    
   5 C5             2.2973     1.4032     0.7352 C.ar    
   6 N6             1.1274     1.9987     0.8380 N.ar    
   7 N7            -1.1978     2.0748     0.5677 N.pl3   
   8 C8             3.7045    -0.5502     0.0891 C.2     
   9 O9             3.7766    -1.7629     0.1410 O.2     
  10 N10            4.8224     0.1850    -0.0728 N.am    
  11 C11            6.1464    -0.4523    -0.0514 C.3     
  12 C12            6.8837    -0.0943    -1.3478 C.3     
  13 N13            6.8004     1.3590    -1.5494 N.am    
  14 C14            5.4763     1.9964    -1.5708 C.3     
  15 C15            4.7388     1.6376    -0.2800 C.3     
  16 S16            8.1739     2.2624    -1.7483 S.o2    
  17 O17            7.8394     3.5902    -1.3686 O.2     
  18 O18            9.2297     1.5249    -1.1478 O.2     
  19 C19            8.5205     2.3112    -3.4752 C.ar    
  20 C20            7.9906     3.3195    -4.2583 C.ar    
  21 C21            8.2625     3.3578    -5.6131 C.ar    
  22 C22            9.0647     2.3879    -6.1848 C.ar    
  23 C23            9.5954     1.3801    -5.4015 C.ar    
  24 C24            9.3270     1.3443    -4.0459 C.ar    
  25 C25            9.3603     2.4290    -7.6619 C.3     
  26 F26           10.5163     3.1846    -7.8853 F       
  27 F27            9.5555     1.1269    -8.1348 F       
  28 F28            8.2834     3.0137    -8.3369 F       
  29 C29            5.9840    -1.9707     0.0444 C.3     
  30 C30           -1.2506    -0.5395    -0.5374 C.3     
  31 H31            1.2667    -1.5306    -0.6360 H       
  32 H32            3.1896     1.9144     1.0650 H       
  33 H33           -2.0201     1.6492     0.2786 H       
  34 H34           -1.2205     2.9691     0.9428 H       
  35 H35            6.7141    -0.0879     0.8048 H       
  36 H36            7.9288    -0.3934    -1.2688 H       
  37 H37            6.4162    -0.6076    -2.1881 H       
  38 H38            5.5921     3.0781    -1.6390 H       
  39 H39            4.9087     1.6320    -2.4270 H       
  40 H40            3.6936     1.9358    -0.3626 H       
  41 H41            5.2039     2.1542     0.5596 H       
  42 H42            7.3638     4.0773    -3.8118 H       
  43 H43            7.8479     4.1452    -6.2251 H       
  44 H44           10.2218     0.6222    -5.8481 H       
  45 H45            9.7446     0.5590    -3.4333 H       
  46 H46            5.3916    -2.3266    -0.7985 H       
  47 H47            6.9660    -2.4432     0.0236 H       
  48 H48            5.4785    -2.2239     0.9763 H       
  49 H49           -1.4399    -0.3014    -1.5841 H       
  50 H50           -1.1610    -1.6196    -0.4210 H       
  51 H51           -2.0768    -0.1755     0.0733 H       
  52 Cl52          15.5163     9.1452     6.0650 Cl      
  53 H53           15.5163    10.5152     6.0650 H       
@<TRIPOS>BOND
   1    1    2 ar
   2    1    6 ar
   3    1    7 1
   4    2    3 ar
   5    2   30 1
   6    3    4 ar
   7    3   31 1
   8    4    5 ar
   9    4    8 1
  10    5    6 ar
  11    5   32 1
  12    7   33 1
  13    7   34 1
  14    8    9 2
  15    8   10 am
  16   10   11 1
  17   10   15 1
  18   11   12 1
  19   11   29 1
  20   11   35 1
  21   12   13 1
  22   12   36 1
  23   12   37 1
  24   13   14 1
  25   13   16 am
  26   14   15 1
  27   14   38 1
  28   14   39 1
  29   15   40 1
  30   15   41 1
  31   16   17 2
  32   16   18 2
  33   16   19 1
  34   19   20 ar
  35   19   24 ar
  36   20   21 ar
  37   20   42 1
  38   21   22 ar
  39   21   43 1
  40   22   23 ar
  41   22   25 1
  42   23   24 ar
  43   23   44 1
  44   24   45 1
  45   25   26 1
  46   25   27 1
  47   25   28 1
  48   29   46 1
  49   29   47 1
  50   29   48 1
  51   30   49 1
  52   30   50 1
  53   30   51 1
  54   52   53 1

#	End of record

