#	Name: ASD01208875
#	Creating user name:	WinNT
#	Creation time:	15. 06. 2019 19:10

#	Modifying user name:	WinNT
#	Modification time:	15. 06. 2019 19:10

#	Program:	/corina/corina34_cracker 3.40 0067  02.08.2006

@<TRIPOS>MOLECULE
ASD01208875
  58   61    0    0    0
SMALL
NO_CHARGES


@<TRIPOS>ATOM
   1 C1            -0.3176     1.7817     1.0032 C.2     
   2 C2            -0.2273     0.4174     0.4412 C.ar    
   3 C3             1.0160    -0.2009     0.3011 C.ar    
   4 C4             1.0961    -1.4791    -0.2259 C.ar    
   5 C5            -0.0574    -2.1449    -0.6148 C.ar    
   6 C6            -1.2956    -1.5341    -0.4772 C.ar    
   7 C7            -1.3853    -0.2579     0.0548 C.ar    
   8 O8             0.6921     2.3667     1.3440 O.2     
   9 N9            -1.5187     2.3791     1.1326 N.am    
  10 S10           -3.0561     4.5354     1.8806 S.3     
  11 C11           -1.6035     3.6610     1.6606 C.2     
  12 N12           -0.5927     4.3685     2.0587 N.2     
  13 C13           -0.8558     5.5707     2.5359 C.2     
  14 C14           -2.1503     5.8944     2.5411 C.2     
  15 C15           -2.7353     7.1954     3.0272 C.3     
  16 O16           -2.4222    -2.1904    -0.8600 O.3     
  17 C17           -2.9902    -1.8448    -2.0444 C.ar    
  18 C18           -4.1622    -2.4654    -2.4579 C.ar    
  19 C19           -4.7415    -2.1175    -3.6589 C.ar    
  20 C20           -4.1491    -1.1395    -4.4603 C.ar    
  21 C21           -2.9714    -0.5176    -4.0410 C.ar    
  22 C22           -2.4007    -0.8676    -2.8364 C.ar    
  23 O23           -4.3062     0.1582    -6.6181 O.3     
  24 C24           -4.7668    -0.7638    -5.7491 C.2     
  25 N25           -5.8664    -1.2657    -6.2612 N.2     
  26 N26           -6.1027    -0.7021    -7.3935 N.2     
  27 C27           -5.1716     0.1742    -7.6470 C.2     
  28 C28           -5.0815     1.0475    -8.8718 C.3     
  29 O29            2.3064    -2.0820    -0.3628 O.3     
  30 C30            3.5904    -4.1294    -0.3674 C.3     
  31 C31            2.3094    -3.4324    -0.8301 C.3     
  32 C32            2.2466    -3.4431    -2.3588 C.3     
  33 O33            4.7196    -3.5119    -0.9884 O.3     
  34 C34            5.9734    -4.0910    -0.6217 C.3     
  35 H35            1.9145     0.3169     0.6028 H       
  36 H36            0.0087    -3.1413    -1.0260 H       
  37 H37           -2.3498     0.2152     0.1657 H       
  38 H38           -2.3240     1.9139     0.8569 H       
  39 H39           -0.0857     6.2383     2.8931 H       
  40 H40           -3.8187     7.1732     2.9093 H       
  41 H41           -2.4872     7.3347     4.0794 H       
  42 H42           -2.3232     8.0193     2.4446 H       
  43 H43           -4.6198    -3.2218    -1.8375 H       
  44 H44           -5.6523    -2.6009    -3.9801 H       
  45 H45           -2.5100     0.2390    -4.6583 H       
  46 H46           -1.4918    -0.3844    -2.5096 H       
  47 H47           -4.5075     0.5337    -9.6429 H       
  48 H48           -6.0846     1.2561    -9.2439 H       
  49 H49           -4.5872     1.9843    -8.6146 H       
  50 H50            3.6795    -4.0441     0.7156 H       
  51 H51            3.5525    -5.1822    -0.6471 H       
  52 H52            1.4437    -3.9582    -0.4272 H       
  53 H53            2.2488    -4.4732    -2.7153 H       
  54 H54            1.3339    -2.9465    -2.6885 H       
  55 H55            3.1122    -2.9173    -2.7617 H       
  56 H56            6.1121    -4.0049     0.4560 H       
  57 H57            5.9850    -5.1431    -0.9066 H       
  58 H58            6.7797    -3.5668    -1.1347 H       
@<TRIPOS>BOND
   1    1    2 1
   2    1    8 2
   3    1    9 am
   4    2    3 ar
   5    2    7 ar
   6    3    4 ar
   7    3   35 1
   8    4    5 ar
   9    4   29 1
  10    5    6 ar
  11    5   36 1
  12    6    7 ar
  13    6   16 1
  14    7   37 1
  15    9   11 1
  16    9   38 1
  17   10   11 1
  18   10   14 1
  19   11   12 2
  20   12   13 1
  21   13   14 2
  22   13   39 1
  23   14   15 1
  24   15   40 1
  25   15   41 1
  26   15   42 1
  27   16   17 1
  28   17   18 ar
  29   17   22 ar
  30   18   19 ar
  31   18   43 1
  32   19   20 ar
  33   19   44 1
  34   20   21 ar
  35   20   24 1
  36   21   22 ar
  37   21   45 1
  38   22   46 1
  39   23   24 1
  40   23   27 1
  41   24   25 2
  42   25   26 1
  43   26   27 2
  44   27   28 1
  45   28   47 1
  46   28   48 1
  47   28   49 1
  48   29   31 1
  49   30   31 1
  50   30   33 1
  51   30   50 1
  52   30   51 1
  53   31   32 1
  54   31   52 1
  55   32   53 1
  56   32   54 1
  57   32   55 1
  58   33   34 1
  59   34   56 1
  60   34   57 1
  61   34   58 1

#	End of record

