#	Name: ASD02770017
#	Creating user name:	WinNT
#	Creation time:	15. 06. 2019 20:26

#	Modifying user name:	WinNT
#	Modification time:	15. 06. 2019 20:26

#	Program:	/corina/corina34_cracker 3.40 0067  02.08.2006

@<TRIPOS>MOLECULE
ASD02770017
  27   27    0    0    0
SMALL
NO_CHARGES


@<TRIPOS>ATOM
   1 C1            -0.0184     1.5028     0.0103 C.2     
   2 C2             0.0021    -0.0041     0.0020 C.3     
   3 O3             1.0236     2.1234     0.0037 O.2     
   4 N4            -1.1946     2.1607     0.0195 N.am    
   5 O5             1.3556    -0.4620    -0.0134 O.3     
   6 C6             1.5521    -1.8079    -0.0225 C.ar    
   7 C7             1.6410    -2.4891    -1.2270 C.ar    
   8 C8             1.8408    -3.8579    -1.2339 C.ar    
   9 C9             1.9517    -4.5492    -0.0417 C.ar    
  10 C10            1.8635    -3.8757     1.1622 C.ar    
  11 C11            1.6700    -2.5034     1.1765 C.ar    
  12 O12            1.5895    -1.8389     2.3603 O.3     
  13 C13            1.7194    -2.6175     3.5515 C.3     
  14 C14            2.1688    -6.0404    -0.0547 C.3     
  15 Cl15           1.5011    -1.6245    -2.7258 Cl      
  16 H16           -0.4983    -0.3791     0.8948 H       
  17 H17           -0.5153    -0.3696    -0.8850 H       
  18 H18           -2.0280     1.6644     0.0207 H       
  19 H19           -1.2077     3.1306     0.0248 H       
  20 H20            1.9100    -4.3877    -2.1725 H       
  21 H21            1.9497    -4.4184     2.0920 H       
  22 H22            1.6366    -1.9667     4.4219 H       
  23 H23            0.9298    -3.3683     3.5827 H       
  24 H24            2.6910    -3.1117     3.5584 H       
  25 H25            3.2381    -6.2518    -0.0666 H       
  26 H26            1.7213    -6.4805     0.8364 H       
  27 H27            1.7042    -6.4674    -0.9434 H       
@<TRIPOS>BOND
   1    1    2 1
   2    1    3 2
   3    1    4 am
   4    2    5 1
   5    2   16 1
   6    2   17 1
   7    4   18 1
   8    4   19 1
   9    5    6 1
  10    6    7 ar
  11    6   11 ar
  12    7    8 ar
  13    7   15 1
  14    8    9 ar
  15    8   20 1
  16    9   10 ar
  17    9   14 1
  18   10   11 ar
  19   10   21 1
  20   11   12 1
  21   12   13 1
  22   13   22 1
  23   13   23 1
  24   13   24 1
  25   14   25 1
  26   14   26 1
  27   14   27 1

#	End of record

