#	Name: ASD09740031
#	Creating user name:	WinNT
#	Creation time:	15. 06. 2019 21:22

#	Modifying user name:	WinNT
#	Modification time:	15. 06. 2019 21:22

#	Program:	/corina/corina34_cracker 3.40 0067  02.08.2006

@<TRIPOS>MOLECULE
ASD09740031
  70   73    0    0    0
SMALL
NO_CHARGES


@<TRIPOS>ATOM
   1 N1            -1.6112     1.8496    -2.0057 N.2     
   2 O2            -1.8041     0.6784    -2.2541 O.3     
   3 C3            -0.3337     2.0737    -1.8327 C.2     
   4 N4             0.3076     0.8980    -1.9975 N.2     
   5 C5            -0.6371     0.0152    -2.2656 C.2     
   6 C6            -0.4464    -1.4257    -2.5274 C.ar    
   7 C7             0.2942     3.3804    -1.5138 C.ar    
   8 C8             0.8365    -1.9771    -2.5049 C.ar    
   9 C9            -1.5491    -2.2408    -2.7924 C.ar    
  10 C10           -1.3655    -3.5887    -3.0363 C.ar    
  11 C11           -0.0822    -4.1315    -3.0175 C.ar    
  12 C12            1.0129    -3.3224    -2.7490 C.ar    
  13 C13            1.6748     3.4699    -1.3572 C.ar    
  14 C14            2.2539     4.6869    -1.0606 C.ar    
  15 C15            1.4650     5.8131    -0.9192 C.ar    
  16 C16            0.0904     5.7320    -1.0737 C.ar    
  17 C17           -0.4981     4.5205    -1.3766 C.ar    
  18 C18           -0.9722     6.8054    -0.9703 C.3     
  19 C19           -2.3030     6.0416    -0.8036 C.3     
  20 C20           -1.9973     4.6931    -1.4924 C.3     
  21 N21           -0.7236     7.6577     0.2000 N.3     
  22 C22            0.2009     8.7502    -0.1312 C.3     
  23 C23            0.4349     9.6141     1.1097 C.3     
  24 N24            1.3594    10.7066     0.7784 N.3     
  25 C25            1.8448    12.5073    -0.8088 C.3     
  26 C26            0.7533    11.6354    -0.1848 C.3     
  27 C27            2.8411    10.5740     2.7237 C.3     
  28 C28            1.7938    11.4143     1.9902 C.3     
  29 O29            0.0968    -5.4568    -3.2575 O.3     
  30 C30            1.4407    -7.4489    -3.5142 C.3     
  31 C31            1.4387    -5.9469    -3.2228 C.3     
  32 O32           -2.4371    -4.3853    -3.2941 O.3     
  33 C33           -4.7963    -4.8084    -3.6035 C.3     
  34 C34           -3.7230    -3.7620    -3.2970 C.3     
  35 H35            1.6904    -1.3496    -2.2966 H       
  36 H36           -2.5432    -1.8189    -2.8062 H       
  37 H37            2.0060    -3.7467    -2.7358 H       
  38 H38            2.2906     2.5895    -1.4671 H       
  39 H39            3.3245     4.7594    -0.9385 H       
  40 H40            1.9233     6.7629    -0.6863 H       
  41 H41           -0.9924     7.4064    -1.8794 H       
  42 H42           -2.5374     5.8970     0.2510 H       
  43 H43           -3.1142     6.5604    -1.3144 H       
  44 H44           -2.2946     4.7277    -2.5405 H       
  45 H45           -2.5119     3.8808    -0.9791 H       
  46 H46           -1.5882     8.0171     0.5758 H       
  47 H47            1.1501     8.3334    -0.4680 H       
  48 H48           -0.2290     9.3621    -0.9242 H       
  49 H49           -0.5142    10.0309     1.4465 H       
  50 H50            0.8649     9.0022     1.9026 H       
  51 H51            1.4179    13.1006    -1.6174 H       
  52 H52            2.2575    13.1715    -0.0495 H       
  53 H53            2.6365    11.8709    -1.2040 H       
  54 H54            0.2489    11.0690    -0.9677 H       
  55 H55            0.0302    12.2699     0.3278 H       
  56 H56            3.7019    10.4177     2.0735 H       
  57 H57            3.1580    11.0957     3.6268 H       
  58 H58            2.4097     9.6101     2.9935 H       
  59 H59            2.2276    12.3753     1.7140 H       
  60 H60            0.9363    11.5769     2.6431 H       
  61 H61            0.8455    -7.9659    -2.7615 H       
  62 H62            1.0138    -7.6281    -4.5010 H       
  63 H63            2.4643    -7.8228    -3.4878 H       
  64 H64            2.0339    -5.4300    -3.9756 H       
  65 H65            1.8656    -5.7677    -2.2361 H       
  66 H66           -5.7772    -4.3330    -3.6058 H       
  67 H67           -4.6044    -5.2501    -4.5814 H       
  68 H68           -4.7720    -5.5877    -2.8418 H       
  69 H69           -3.9150    -3.3204    -2.3192 H       
  70 H70           -3.7474    -2.9827    -4.0588 H       
@<TRIPOS>BOND
   1    1    2 1
   2    1    3 2
   3    2    5 1
   4    3    4 1
   5    3    7 1
   6    4    5 2
   7    5    6 1
   8    6    8 ar
   9    6    9 ar
  10    7   13 ar
  11    7   17 ar
  12    8   12 ar
  13    8   35 1
  14    9   10 ar
  15    9   36 1
  16   10   11 ar
  17   10   32 1
  18   11   12 ar
  19   11   29 1
  20   12   37 1
  21   13   14 ar
  22   13   38 1
  23   14   15 ar
  24   14   39 1
  25   15   16 ar
  26   15   40 1
  27   16   17 ar
  28   16   18 1
  29   17   20 1
  30   18   19 1
  31   18   21 1
  32   18   41 1
  33   19   20 1
  34   19   42 1
  35   19   43 1
  36   20   44 1
  37   20   45 1
  38   21   22 1
  39   21   46 1
  40   22   23 1
  41   22   47 1
  42   22   48 1
  43   23   24 1
  44   23   49 1
  45   23   50 1
  46   24   26 1
  47   24   28 1
  48   25   26 1
  49   25   51 1
  50   25   52 1
  51   25   53 1
  52   26   54 1
  53   26   55 1
  54   27   28 1
  55   27   56 1
  56   27   57 1
  57   27   58 1
  58   28   59 1
  59   28   60 1
  60   29   31 1
  61   30   31 1
  62   30   61 1
  63   30   62 1
  64   30   63 1
  65   31   64 1
  66   31   65 1
  67   32   34 1
  68   33   34 1
  69   33   66 1
  70   33   67 1
  71   33   68 1
  72   34   69 1
  73   34   70 1

#	End of record

