#	Name: ASD05720037
#	Creating user name:	WinNT
#	Creation time:	15. 06. 2019 21:01

#	Modifying user name:	WinNT
#	Modification time:	15. 06. 2019 21:01

#	Program:	/corina/corina34_cracker 3.40 0067  02.08.2006

@<TRIPOS>MOLECULE
ASD05720037
  88   91    0    0    0
SMALL
NO_CHARGES


@<TRIPOS>ATOM
   1 C1             0.5119     1.0237     1.1164 C.2     
   2 N2             0.4122    -0.2391     0.6808 N.am    
   3 C3             1.6580    -0.6134    -0.0049 C.3     
   4 C4             2.5297     0.6535     0.0955 C.3     
   5 N5             1.6824     1.6071     0.8270 N.am    
   6 O6            -0.3811     1.5906     1.7157 O.2     
   7 C7             2.0587     2.9775     1.1828 C.3     
   8 C8             2.7352     2.9807     2.5551 C.3     
   9 N9             3.1125     4.3548     2.9118 N.3     
  10 C10            3.5468     4.4347     4.3135 C.3     
  11 C11            4.0056     5.8619     4.6221 C.3     
  12 N12            2.9010     6.7957     4.3620 N.3     
  13 C13            2.4667     6.7158     2.9603 C.3     
  14 C14            2.0080     5.2887     2.6517 C.3     
  15 C15            3.2784     8.1698     4.7187 C.3     
  16 C16            1.3817    -0.9606    -1.4691 C.3     
  17 C17            0.5224    -2.2245    -1.5401 C.3     
  18 C18            0.6397     0.1988    -2.1369 C.3     
  19 C19           -1.6778    -3.1433     0.6617 C.2     
  20 N20           -0.6243    -2.3357     0.5053 N.2     
  21 C21           -0.6921    -1.0636     0.8499 C.2     
  22 C22           -1.8851    -0.5415     1.3900 C.2     
  23 C23           -2.9530    -1.3558     1.5497 C.2     
  24 N24           -2.8523    -2.6692     1.1834 N.pl3   
  25 N25           -3.7636    -3.7303     1.2267 N.2     
  26 C26           -3.1914    -4.8116     0.7573 C.2     
  27 C27           -1.8788    -4.5014     0.3811 C.2     
  28 C28           -0.8882    -5.4341    -0.2016 C.ar    
  29 C29           -0.6489    -6.6680     0.4062 C.ar    
  30 C30            0.2725    -7.5353    -0.1368 C.ar    
  31 C31            0.9670    -7.1812    -1.2934 C.ar    
  32 C32            0.7285    -5.9487    -1.9011 C.ar    
  33 C33           -0.1968    -5.0827    -1.3625 C.ar    
  34 N34            3.4781    -9.0331    -3.1490 N.pl3   
  35 N35            2.6749    -7.8969    -2.9593 N.2     
  36 C36            1.9599    -8.1156    -1.8770 C.2     
  37 N37            2.2776    -9.3227    -1.3893 N.2     
  38 C38            3.1866    -9.8797    -2.1451 C.2     
  39 H39            2.1383    -1.4495     0.5036 H       
  40 H40            3.4427     0.4464     0.6537 H       
  41 H41            2.7656     1.0352    -0.8979 H       
  42 H42            2.7493     3.3700     0.4364 H       
  43 H43            1.1662     3.6023     1.2162 H       
  44 H44            2.0446     2.5881     3.3015 H       
  45 H45            3.6277     2.3559     2.5217 H       
  46 H46            2.7157     4.1705     4.9673 H       
  47 H47            4.3734     3.7435     4.4780 H       
  48 H48            4.3009     5.9305     5.6691 H       
  49 H49            4.8542     6.1164     3.9871 H       
  50 H50            1.6402     7.4071     2.7958 H       
  51 H51            3.2978     6.9801     2.3065 H       
  52 H52            1.7127     5.2200     1.6047 H       
  53 H53            1.1594     5.0341     3.2867 H       
  54 H54            4.1410     8.4751     4.1264 H       
  55 H55            2.4431     8.8402     4.5163 H       
  56 H56            3.5311     8.2139     5.7781 H       
  57 H57            2.3257    -1.1336    -1.9859 H       
  58 H58            0.5093    -2.5979    -2.5641 H       
  59 H59            0.9403    -2.9855    -0.8812 H       
  60 H60           -0.4947    -1.9904    -1.2258 H       
  61 H61            1.2519     1.0992    -2.0863 H       
  62 H62            0.4428    -0.0485    -3.1801 H       
  63 H63           -0.3043     0.3718    -1.6201 H       
  64 H64           -1.9455     0.4988     1.6739 H       
  65 H65           -3.8748    -0.9730     1.9622 H       
  66 H66           -3.6570    -5.7823     0.6714 H       
  67 H67           -1.1861    -6.9420     1.3021 H       
  68 H68            0.4577    -8.4899     0.3333 H       
  69 H69            1.2666    -5.6751    -2.7966 H       
  70 H70           -0.3844    -4.1301    -1.8354 H       
  71 H71            4.1151    -9.1803    -3.8656 H       
  72 H72            3.6281   -10.8531    -1.9903 H       
  73 C73           11.0256    15.8284    11.9249 C.2     
  74 C74           11.0460    14.3216    11.9166 C.3     
  75 O75           12.0636    16.4467    11.9183 O.2     
  76 O76            9.8542    16.4837    11.9340 O.3     
  77 F77           12.3712    13.8733    11.9015 F       
  78 F78           10.4039    13.8402    13.0625 F       
  79 F79           10.3820    13.8525    10.7781 F       
  80 H80            9.8917    17.4499    11.9391 H       
  81 C81           18.5426    24.4382    19.2093 C.2     
  82 C82           18.5630    22.9313    19.2010 C.3     
  83 O83           19.5806    25.0565    19.2027 O.2     
  84 O84           17.3712    25.0935    19.2184 O.3     
  85 F85           19.8882    22.4830    19.1860 F       
  86 F86           17.9209    22.4499    20.3469 F       
  87 F87           17.8991    22.4622    18.0625 F       
  88 H88           17.4087    26.0597    19.2235 H       
@<TRIPOS>BOND
   1    1    2 am
   2    1    5 am
   3    1    6 2
   4    2    3 1
   5    2   21 1
   6    3    4 1
   7    3   16 1
   8    3   39 1
   9    4    5 1
  10    4   40 1
  11    4   41 1
  12    5    7 1
  13    7    8 1
  14    7   42 1
  15    7   43 1
  16    8    9 1
  17    8   44 1
  18    8   45 1
  19    9   10 1
  20    9   14 1
  21   10   11 1
  22   10   46 1
  23   10   47 1
  24   11   12 1
  25   11   48 1
  26   11   49 1
  27   12   13 1
  28   12   15 1
  29   13   14 1
  30   13   50 1
  31   13   51 1
  32   14   52 1
  33   14   53 1
  34   15   54 1
  35   15   55 1
  36   15   56 1
  37   16   17 1
  38   16   18 1
  39   16   57 1
  40   17   58 1
  41   17   59 1
  42   17   60 1
  43   18   61 1
  44   18   62 1
  45   18   63 1
  46   19   20 1
  47   19   24 1
  48   19   27 2
  49   20   21 2
  50   21   22 1
  51   22   23 2
  52   22   64 1
  53   23   24 1
  54   23   65 1
  55   24   25 1
  56   25   26 2
  57   26   27 1
  58   26   66 1
  59   27   28 1
  60   28   29 ar
  61   28   33 ar
  62   29   30 ar
  63   29   67 1
  64   30   31 ar
  65   30   68 1
  66   31   32 ar
  67   31   36 1
  68   32   33 ar
  69   32   69 1
  70   33   70 1
  71   34   35 1
  72   34   38 1
  73   34   71 1
  74   35   36 2
  75   36   37 1
  76   37   38 2
  77   38   72 1
  78   73   74 1
  79   73   75 2
  80   73   76 1
  81   74   77 1
  82   74   78 1
  83   74   79 1
  84   76   80 1
  85   81   82 1
  86   81   83 2
  87   81   84 1
  88   82   85 1
  89   82   86 1
  90   82   87 1
  91   84   88 1

#	End of record

