#	Name: ASD08178292
#	Creating user name:	WinNT
#	Creation time:	15. 06. 2019 21:18

#	Modifying user name:	WinNT
#	Modification time:	15. 06. 2019 21:18

#	Program:	/corina/corina34_cracker 3.40 0067  02.08.2006

@<TRIPOS>MOLECULE
ASD08178292
  71   73    0    0    0
SMALL
NO_CHARGES


@<TRIPOS>ATOM
   1 N1            -0.0168     1.3902     0.0097 N.am    
   2 C2             0.2209     0.0165    -0.0188 C.ar    
   3 C3            -0.8407    -0.8799     0.0871 C.ar    
   4 N4             1.4564    -0.4422    -0.1523 N.ar    
   5 N5             1.7175    -1.6985    -0.1835 N.ar    
   6 C6             0.7755    -2.6159    -0.0850 C.ar    
   7 C7            -0.5515    -2.2356     0.0529 C.ar    
   8 C8             1.1398    -4.0776    -0.1283 C.3     
   9 C9             1.9349    -4.3675    -1.4029 C.3     
  10 C10            2.3048    -5.8515    -1.4469 C.3     
  11 C11            3.0999    -6.1414    -2.7215 C.3     
  12 C12            3.4642    -7.6030    -2.7648 C.2     
  13 N13            2.7587    -8.5508    -3.2955 N.2     
  14 N14            3.2382    -9.7168    -3.2292 N.2     
  15 C15            4.3865    -9.8640    -2.6402 C.2     
  16 S16            4.9316    -8.3295    -2.1084 S.3     
  17 N17            5.0639   -11.0672    -2.4739 N.am    
  18 C18            4.5302   -12.2117    -2.9449 C.2     
  19 C19            5.2642   -13.5154    -2.7647 C.3     
  20 O20            3.4593   -12.1923    -3.5139 O.2     
  21 C21            1.0183     2.2534     0.0120 C.2     
  22 C22            0.7631     3.7361    -0.0748 C.3     
  23 O23            2.1550     1.8369     0.0839 O.2     
  24 C24            2.0770     4.4740    -0.0537 C.ar    
  25 C25            2.7329     4.7517    -1.2386 C.ar    
  26 C26            3.9379     5.4284    -1.2192 C.ar    
  27 C27            4.4871     5.8279    -0.0150 C.ar    
  28 C28            3.8309     5.5511     1.1695 C.ar    
  29 C29            2.6234     4.8780     1.1499 C.ar    
  30 C30            4.4297     5.9862     2.4822 C.3     
  31 N31            3.9508     7.3300     2.8159 N.am    
  32 C32            4.3574     7.9270     3.9537 C.2     
  33 O33            3.9173     9.1619     4.2604 O.3     
  34 O34            5.1211     7.3508     4.7028 O.2     
  35 C35            4.3966     9.7432     5.5016 C.3     
  36 C36            5.9223     9.8492     5.4594 C.3     
  37 C37            3.7931    11.1381     5.6780 C.3     
  38 C38            3.9794     8.8549     6.6753 C.3     
  39 H39           -0.9272     1.7247     0.0238 H       
  40 H40           -1.8568    -0.5297     0.1929 H       
  41 H41           -1.3357    -2.9736     0.1352 H       
  42 H42            1.7459    -4.3270     0.7427 H       
  43 H43            0.2307    -4.6790    -0.1225 H       
  44 H44            1.3289    -4.1181    -2.2739 H       
  45 H45            2.8440    -3.7662    -1.4087 H       
  46 H46            2.9109    -6.1008    -0.5759 H       
  47 H47            1.3957    -6.4528    -1.4411 H       
  48 H48            2.4939    -5.8920    -3.5924 H       
  49 H49            4.0090    -5.5400    -2.7272 H       
  50 H50            5.9204   -11.0827    -2.0188 H       
  51 H51            4.9618   -13.9756    -1.8240 H       
  52 H52            5.0237   -14.1850    -3.5905 H       
  53 H53            6.3380   -13.3288    -2.7492 H       
  54 H54            0.2354     3.9603    -1.0018 H       
  55 H55            0.1561     4.0506     0.7741 H       
  56 H56            2.3040     4.4396    -2.1793 H       
  57 H57            4.4507     5.6447    -2.1448 H       
  58 H58            5.4290     6.3561     0.0002 H       
  59 H59            2.1106     4.6617     2.0754 H       
  60 H60            4.1323     5.2895     3.2659 H       
  61 H61            5.5165     5.9979     2.3997 H       
  62 H62            3.3412     7.7900     2.2178 H       
  63 H63            6.2196    10.4821     4.6232 H       
  64 H64            6.2822    10.2856     6.3912 H       
  65 H65            6.3523     8.8555     5.3337 H       
  66 H66            2.7062    11.0625     5.7081 H       
  67 H67            4.1530    11.5744     6.6098 H       
  68 H68            4.0904    11.7709     4.8418 H       
  69 H69            4.4093     7.8611     6.5497 H       
  70 H70            4.3392     9.2912     7.6071 H       
  71 H71            2.8924     8.7793     6.7054 H       
@<TRIPOS>BOND
   1    1    2 1
   2    1   21 am
   3    1   39 1
   4    2    3 ar
   5    2    4 ar
   6    3    7 ar
   7    3   40 1
   8    4    5 ar
   9    5    6 ar
  10    6    7 ar
  11    6    8 1
  12    7   41 1
  13    8    9 1
  14    8   42 1
  15    8   43 1
  16    9   10 1
  17    9   44 1
  18    9   45 1
  19   10   11 1
  20   10   46 1
  21   10   47 1
  22   11   12 1
  23   11   48 1
  24   11   49 1
  25   12   13 2
  26   12   16 1
  27   13   14 1
  28   14   15 2
  29   15   16 1
  30   15   17 1
  31   17   18 am
  32   17   50 1
  33   18   19 1
  34   18   20 2
  35   19   51 1
  36   19   52 1
  37   19   53 1
  38   21   22 1
  39   21   23 2
  40   22   24 1
  41   22   54 1
  42   22   55 1
  43   24   25 ar
  44   24   29 ar
  45   25   26 ar
  46   25   56 1
  47   26   27 ar
  48   26   57 1
  49   27   28 ar
  50   27   58 1
  51   28   29 ar
  52   28   30 1
  53   29   59 1
  54   30   31 1
  55   30   60 1
  56   30   61 1
  57   31   32 am
  58   31   62 1
  59   32   33 1
  60   32   34 2
  61   33   35 1
  62   35   36 1
  63   35   37 1
  64   35   38 1
  65   36   63 1
  66   36   64 1
  67   36   65 1
  68   37   66 1
  69   37   67 1
  70   37   68 1
  71   38   69 1
  72   38   70 1
  73   38   71 1

#	End of record

