#	Name: ASD01140647
#	Creating user name:	WinNT
#	Creation time:	15. 06. 2019 19:01

#	Modifying user name:	WinNT
#	Modification time:	15. 06. 2019 19:01

#	Program:	/corina/corina34_cracker 3.40 0067  02.08.2006

@<TRIPOS>MOLECULE
ASD01140647
  47   49    0    0    0
SMALL
NO_CHARGES


@<TRIPOS>ATOM
   1 C1            -1.5965     1.3081     1.2676 C.3     
   2 C2            -1.2904    -0.1711     1.0248 C.3     
   3 C3            -0.3064    -0.6690     2.0853 C.3     
   4 N4            -0.0133    -2.0855     1.8529 N.am    
   5 C5             0.8352    -2.7409     2.6696 C.2     
   6 O6             1.3575    -2.1565     3.5995 O.2     
   7 C7             1.1300    -4.1658     2.4357 C.ar    
   8 N8             0.4776    -4.8339     1.4821 N.ar    
   9 N9             0.6858    -6.0744     1.2261 N.ar    
  10 C10            1.5834    -6.7982     1.9047 C.ar    
  11 C11            1.8041    -8.1631     1.6132 C.ar    
  12 C12            2.7457    -8.8698     2.3448 C.ar    
  13 C13            3.4696    -8.2522     3.3561 C.ar    
  14 C14            3.2740    -6.9347     3.6561 C.ar    
  15 C15            2.3326    -6.1880     2.9393 C.ar    
  16 C16            2.0998    -4.8167     3.2113 C.ar    
  17 N17            2.7936    -4.1527     4.1994 N.pl3   
  18 C18            1.0371    -8.8317     0.5375 C.ar    
  19 C19            0.1418    -9.8607     0.8296 C.ar    
  20 N20           -0.5248   -10.4330    -0.1596 N.ar    
  21 C21           -0.3536   -10.0440    -1.4129 C.ar    
  22 O22           -1.0574   -10.6586    -2.3933 O.3     
  23 C23           -1.9497   -11.7013    -1.9951 C.3     
  24 N24            0.4843    -9.0722    -1.7372 N.ar    
  25 C25            1.1872    -8.4426    -0.8055 C.ar    
  26 O26            2.0394    -7.4451    -1.1422 O.3     
  27 C27            2.1324    -7.1118    -2.5287 C.3     
  28 H28           -0.6737     1.8850     1.2063 H       
  29 H29           -2.2975     1.6629     0.5120 H       
  30 H30           -2.0364     1.4305     2.2573 H       
  31 H31           -2.2132    -0.7479     1.0860 H       
  32 H32           -0.8505    -0.2935     0.0350 H       
  33 H33            0.6164    -0.0922     2.0241 H       
  34 H34           -0.7463    -0.5467     3.0751 H       
  35 H35           -0.4298    -2.5516     1.1112 H       
  36 H36            2.9182    -9.9132     2.1259 H       
  37 H37            4.1977    -8.8225     3.9138 H       
  38 H38            3.8453    -6.4694     4.4458 H       
  39 H39            2.8542    -3.1848     4.1827 H       
  40 H40            3.2213    -4.6532     4.9117 H       
  41 H41           -0.0050   -10.1859     1.8490 H       
  42 H42           -2.4490   -12.1078    -2.8747 H       
  43 H43           -1.3865   -12.4919    -1.4993 H       
  44 H44           -2.6943   -11.2997    -1.3078 H       
  45 H45            2.4661    -7.9843    -3.0905 H       
  46 H46            1.1545    -6.7972    -2.8932 H       
  47 H47            2.8476    -6.2998    -2.6600 H       
@<TRIPOS>BOND
   1    1    2 1
   2    1   28 1
   3    1   29 1
   4    1   30 1
   5    2    3 1
   6    2   31 1
   7    2   32 1
   8    3    4 1
   9    3   33 1
  10    3   34 1
  11    4    5 am
  12    4   35 1
  13    5    6 2
  14    5    7 1
  15    7   16 ar
  16    7    8 ar
  17    8    9 ar
  18    9   10 ar
  19   10   15 ar
  20   10   11 ar
  21   11   12 ar
  22   11   18 1
  23   12   13 ar
  24   12   36 1
  25   13   14 ar
  26   13   37 1
  27   14   15 ar
  28   14   38 1
  29   15   16 ar
  30   16   17 1
  31   17   39 1
  32   17   40 1
  33   18   25 ar
  34   18   19 ar
  35   19   20 ar
  36   19   41 1
  37   20   21 ar
  38   21   22 1
  39   21   24 ar
  40   22   23 1
  41   23   42 1
  42   23   43 1
  43   23   44 1
  44   24   25 ar
  45   25   26 1
  46   26   27 1
  47   27   45 1
  48   27   46 1
  49   27   47 1

#	End of record

