#	Name: ASD05250031
#	Creating user name:	WinNT
#	Creation time:	15. 06. 2019 20:58

#	Modifying user name:	WinNT
#	Modification time:	15. 06. 2019 20:58

#	Program:	/corina/corina34_cracker 3.40 0067  02.08.2006

@<TRIPOS>MOLECULE
ASD05250031
  45   46    0    0    0
SMALL
NO_CHARGES


@<TRIPOS>ATOM
   1 C1            -0.0184     1.5051     0.0103 C.3     
   2 C2             0.0021    -0.0041     0.0020 C.2     
   3 N3             1.0086    -0.6480     0.6303 N.am    
   4 C4             2.0096     0.0671     1.1793 C.2     
   5 N5             2.1364     1.3804     0.9278 N.am    
   6 N6             1.3608     2.0080    -0.0002 N.3     
   7 O7            -0.8722    -0.6284    -0.5599 O.2     
   8 O8             2.8080    -0.4831     1.9120 O.2     
   9 C9             3.1329     2.1570     1.6694 C.3     
  10 C10            3.9082     3.0734     0.7030 C.3     
  11 O11            2.4777     3.0040     2.6284 O.3     
  12 C12            3.2560     4.2165     2.7210 C.3     
  13 C13            3.6606     4.4997     1.2519 C.3     
  14 C14            2.4060     5.3613     3.2760 C.3     
  15 O15            2.0519     5.0767     4.6550 O.3     
  16 C16            1.3016     5.9892     5.2923 C.2     
  17 O17            0.9524     6.9926     4.7168 O.2     
  18 O18            4.8737     5.2954     1.1926 O.3     
  19 O19            5.3251     2.7574     0.7297 O.3     
  20 C20            4.7263     6.6289     1.1497 C.2     
  21 O21            3.6202     7.1151     1.1612 O.2     
  22 C22            5.7648     1.8537    -0.1600 C.2     
  23 O23            4.9913     1.3435    -0.9355 O.2     
  24 C24            0.8949     5.7623     6.7255 C.3     
  25 C25            5.9403     7.5196     1.0871 C.3     
  26 C26            7.2232     1.4753    -0.1918 C.3     
  27 H27           -0.5444     1.8668    -0.8732 H       
  28 H28           -0.5274     1.8572     0.9075 H       
  29 H29            1.0109    -1.6164     0.6861 H       
  30 H30            1.7662     1.9324    -0.9210 H       
  31 H31            3.8241     1.4842     2.1770 H       
  32 H32            3.5161     2.9788    -0.3096 H       
  33 H33            4.1400     4.0589     3.3390 H       
  34 H34            2.8495     4.9887     0.7124 H       
  35 H35            2.9741     6.2905     3.2311 H       
  36 H36            1.4983     5.4613     2.6809 H       
  37 H37            1.7863     5.6741     7.3466 H       
  38 H38            0.2937     6.6037     7.0702 H       
  39 H39            0.3104     4.8450     6.7964 H       
  40 H40            6.5142     7.2890     0.1895 H       
  41 H41            5.6247     8.5625     1.0587 H       
  42 H42            6.5601     7.3514     1.9678 H       
  43 H43            7.5111     1.0569     0.7727 H       
  44 H44            7.3893     0.7341    -0.9735 H       
  45 H45            7.8240     2.3612    -0.3975 H       
@<TRIPOS>BOND
   1    1    2 1
   2    1    6 1
   3    1   27 1
   4    1   28 1
   5    2    3 am
   6    2    7 2
   7    3    4 am
   8    3   29 1
   9    4    5 am
  10    4    8 2
  11    5    6 1
  12    5    9 1
  13    6   30 1
  14    9   10 1
  15    9   11 1
  16    9   31 1
  17   10   19 1
  18   10   13 1
  19   10   32 1
  20   11   12 1
  21   12   13 1
  22   12   14 1
  23   12   33 1
  24   13   18 1
  25   13   34 1
  26   14   15 1
  27   14   35 1
  28   14   36 1
  29   15   16 1
  30   16   17 2
  31   16   24 1
  32   18   20 1
  33   19   22 1
  34   20   21 2
  35   20   25 1
  36   22   23 2
  37   22   26 1
  38   24   37 1
  39   24   38 1
  40   24   39 1
  41   25   40 1
  42   25   41 1
  43   25   42 1
  44   26   43 1
  45   26   44 1
  46   26   45 1

#	End of record

