#	Name: ASD01510015
#	Creating user name:	WinNT
#	Creation time:	15. 06. 2019 19:21

#	Modifying user name:	WinNT
#	Modification time:	15. 06. 2019 19:21

#	Program:	/corina/corina34_cracker 3.40 0067  02.08.2006

@<TRIPOS>MOLECULE
ASD01510015
  43   44    0    0    0
SMALL
NO_CHARGES


@<TRIPOS>ATOM
   1 C1             0.6091     0.9917     0.1161 C.3     
   2 O2             0.6021    -0.4316    -0.0119 O.3     
   3 C3            -0.5997    -1.0526     0.0853 C.ar    
   4 N4            -1.7075    -0.3481     0.2906 N.ar    
   5 C5            -2.8848    -0.9467     0.3869 C.ar    
   6 N6            -4.0172    -0.1763     0.6013 N.pl3   
   7 N7            -3.0102    -2.2610     0.2835 N.ar    
   8 C8            -1.9481    -3.0326     0.0779 C.ar    
   9 C9            -0.6908    -2.4393    -0.0345 C.ar    
  10 S10            0.7484    -3.4184    -0.3078 S.3     
  11 C11            0.7745    -3.4388    -2.0695 C.ar    
  12 N12            1.7410    -4.0969    -2.6932 N.ar    
  13 C13            1.7923    -4.1338    -4.0215 C.ar    
  14 N14            2.8099    -4.8273    -4.6684 N.am    
  15 C15            3.8097    -5.3793    -3.9528 C.2     
  16 O16            3.8737    -5.1928    -2.7562 O.2     
  17 C17            4.8482    -6.2283    -4.6396 C.3     
  18 C18            0.8143    -3.4698    -4.7559 C.ar    
  19 C19           -0.1848    -2.7894    -4.0663 C.ar    
  20 N20           -0.1760    -2.8000    -2.7366 N.ar    
  21 N21           -1.1825    -2.1114    -4.7589 N.am    
  22 C22           -2.2021    -1.5419    -4.0861 C.2     
  23 O23           -2.2025    -1.5403    -2.8734 O.2     
  24 C24           -3.3415    -0.9070    -4.8408 C.3     
  25 O25           -2.0855    -4.3779    -0.0268 O.3     
  26 C26           -3.4077    -4.9063     0.0939 C.3     
  27 H27            1.6303     1.3602     0.0190 H       
  28 H28           -0.0112     1.4299    -0.6658 H       
  29 H29            0.2134     1.2706     1.0927 H       
  30 H30           -3.9405     0.7875     0.6787 H       
  31 H31           -4.8862    -0.6011     0.6738 H       
  32 H32            2.7999    -4.9136    -5.6345 H       
  33 H33            4.6272    -6.2812    -5.7057 H       
  34 H34            5.8336    -5.7854    -4.4944 H       
  35 H35            4.8351    -7.2323    -4.2156 H       
  36 H36            0.8305    -3.4820    -5.8357 H       
  37 H37           -1.1445    -2.0484    -5.7261 H       
  38 H38           -4.1169    -1.6514    -5.0218 H       
  39 H39           -3.7548    -0.0874    -4.2529 H       
  40 H40           -2.9771    -0.5230    -5.7936 H       
  41 H41           -3.3762    -5.9911    -0.0086 H       
  42 H42           -3.8156    -4.6454     1.0705 H       
  43 H43           -4.0399    -4.4857    -0.6881 H       
@<TRIPOS>BOND
   1    1    2 1
   2    1   27 1
   3    1   28 1
   4    1   29 1
   5    2    3 1
   6    3    4 ar
   7    3    9 ar
   8    4    5 ar
   9    5    6 1
  10    5    7 ar
  11    6   30 1
  12    6   31 1
  13    7    8 ar
  14    8    9 ar
  15    8   25 1
  16    9   10 1
  17   10   11 1
  18   11   12 ar
  19   11   20 ar
  20   12   13 ar
  21   13   14 1
  22   13   18 ar
  23   14   15 am
  24   14   32 1
  25   15   16 2
  26   15   17 1
  27   17   33 1
  28   17   34 1
  29   17   35 1
  30   18   19 ar
  31   18   36 1
  32   19   20 ar
  33   19   21 1
  34   21   22 am
  35   21   37 1
  36   22   23 2
  37   22   24 1
  38   24   38 1
  39   24   39 1
  40   24   40 1
  41   25   26 1
  42   26   41 1
  43   26   42 1
  44   26   43 1

#	End of record

