#	Name: ASD01917456
#	Creating user name:	WinNT
#	Creation time:	15. 06. 2019 20:09

#	Modifying user name:	WinNT
#	Modification time:	15. 06. 2019 20:09

#	Program:	/corina/corina34_cracker 3.40 0067  02.08.2006

@<TRIPOS>MOLECULE
ASD01917456
  47   51    0    0    0
SMALL
NO_CHARGES


@<TRIPOS>ATOM
   1 C1            -0.0171     1.4098     0.0098 C.ar    
   2 C2             0.0021    -0.0041     0.0020 C.ar    
   3 C3            -1.1913    -0.7248     0.0414 C.ar    
   4 C4            -2.3837    -0.0621     0.0742 C.ar    
   5 C5            -2.4205     1.3389     0.0663 C.ar    
   6 C6            -1.2412     2.0760     0.0357 C.ar    
   7 N7             1.1597     2.0752     0.0021 N.2     
   8 C8             2.3197     1.4677    -0.0397 C.2     
   9 N9             2.4200     0.1196    -0.1574 N.am    
  10 C10            1.3104    -0.6629    -0.0625 C.2     
  11 O11            1.4016    -1.8765    -0.0325 O.2     
  12 C12           -3.7219     2.0384     0.0903 C.2     
  13 N13           -3.8998     3.3333     0.0857 N.2     
  14 N14           -5.0860     3.7607     0.1089 N.2     
  15 C15           -6.0484     2.8773     0.1358 C.2     
  16 S16           -5.3119     1.2737     0.1224 S.3     
  17 C17           -7.4971     3.1692     0.1643 C.ar    
  18 N18           -8.3707     2.1689     0.1825 N.ar    
  19 C19           -9.6693     2.3873     0.2085 C.ar    
  20 C20          -10.1733     3.6752     0.2180 C.ar    
  21 C21           -9.2957     4.7506     0.1997 C.ar    
  22 C22           -7.9363     4.4937     0.1779 C.ar    
  23 C23            3.5355     2.3452     0.1021 C.3     
  24 C24            4.7920     1.6927    -0.4307 C.3     
  25 C25            4.8965     0.2363    -0.0269 C.3     
  26 C26            3.6796    -0.5618    -0.4367 C.3     
  27 C27            6.1349    -0.3736    -0.6867 C.3     
  28 C28            5.0555     0.1532     1.4926 C.3     
  29 H29           -1.1717    -1.8046     0.0456 H       
  30 H30           -3.3068    -0.6219     0.1060 H       
  31 H31           -1.2738     3.1555     0.0325 H       
  32 H32          -10.3501     1.5490     0.2223 H       
  33 H33          -11.2400     3.8428     0.2390 H       
  34 H34           -9.6657     5.7652     0.2067 H       
  35 H35           -7.2255     5.3067     0.1633 H       
  36 H36            3.3641     3.2745    -0.4412 H       
  37 H37            3.6802     2.5783     1.1570 H       
  38 H38            4.7909     1.7589    -1.5187 H       
  39 H39            5.6594     2.2294    -0.0464 H       
  40 H40            3.6888    -1.5121     0.0971 H       
  41 H41            3.7381    -0.7640    -1.5061 H       
  42 H42            7.0240     0.1644    -0.3579 H       
  43 H43            6.2189    -1.4224    -0.4020 H       
  44 H44            6.0440    -0.2975    -1.7702 H       
  45 H45            4.1896     0.6076     1.9739 H       
  46 H46            5.1316    -0.8918     1.7933 H       
  47 H47            5.9587     0.6844     1.7930 H       
@<TRIPOS>BOND
   1    1    2 ar
   2    1    7 1
   3    1    6 ar
   4    2    3 ar
   5    2   10 1
   6    3    4 ar
   7    3   29 1
   8    4    5 ar
   9    4   30 1
  10    5    6 ar
  11    5   12 1
  12    6   31 1
  13    7    8 2
  14    8    9 1
  15    8   23 1
  16    9   10 am
  17    9   26 1
  18   10   11 2
  19   12   13 2
  20   12   16 1
  21   13   14 1
  22   14   15 2
  23   15   16 1
  24   15   17 1
  25   17   18 ar
  26   17   22 ar
  27   18   19 ar
  28   19   20 ar
  29   19   32 1
  30   20   21 ar
  31   20   33 1
  32   21   22 ar
  33   21   34 1
  34   22   35 1
  35   23   24 1
  36   23   36 1
  37   23   37 1
  38   24   25 1
  39   24   38 1
  40   24   39 1
  41   25   26 1
  42   25   27 1
  43   25   28 1
  44   26   40 1
  45   26   41 1
  46   27   42 1
  47   27   43 1
  48   27   44 1
  49   28   45 1
  50   28   46 1
  51   28   47 1

#	End of record

