#	Name: ASD01120345
#	Creating user name:	WinNT
#	Creation time:	15. 06. 2019 18:59

#	Modifying user name:	WinNT
#	Modification time:	15. 06. 2019 18:59

#	Program:	/corina/corina34_cracker 3.40 0067  02.08.2006

@<TRIPOS>MOLECULE
ASD01120345
  38   40    0    0    0
SMALL
NO_CHARGES


@<TRIPOS>ATOM
   1 C1            -0.3264     1.5187    -0.7225 C.3     
   2 C2            -0.2943     0.0123    -0.7494 C.2     
   3 O3             0.5069    -0.5647    -1.4538 O.2     
   4 N4            -1.1558    -0.6938     0.0094 N.am    
   5 C5            -1.1926    -2.0893    -0.0881 C.ar    
   6 C6            -0.0200    -2.8017    -0.3062 C.ar    
   7 C7            -0.0524    -4.1801    -0.4030 C.ar    
   8 C8            -1.2497    -4.8566    -0.2831 C.ar    
   9 C9            -2.4310    -4.1499    -0.0637 C.ar    
  10 C10           -2.3987    -2.7620     0.0387 C.ar    
  11 C11           -3.7191    -4.8755     0.0650 C.ar    
  12 C12           -3.7461    -6.2575    -0.0333 C.ar    
  13 C13           -4.9659    -6.9331     0.0898 C.ar    
  14 C14           -5.3276    -8.3011     0.0401 C.2     
  15 C15           -6.6721    -8.3800     0.2250 C.2     
  16 N16           -7.1819    -7.1065     0.3915 N.pl3   
  17 C17           -6.1499    -6.2017     0.3119 C.ar    
  18 C18           -6.0958    -4.8126     0.4062 C.ar    
  19 C19           -4.9023    -4.1623     0.2910 C.ar    
  20 N20           -7.3370    -4.0404     0.6394 N.pl3   
  21 O21           -7.2922    -2.8260     0.7222 O.2     
  22 O22           -8.4030    -4.6193     0.7485 O.2     
  23 C23           -7.4576    -9.6210     0.2448 C.2     
  24 O24           -6.9053   -10.6926     0.0877 O.2     
  25 O25           -8.7914    -9.5718     0.4372 O.3     
  26 H26            0.4371     1.9105    -1.3946 H       
  27 H27           -1.3077     1.8670    -1.0448 H       
  28 H28           -0.1319     1.8682     0.2915 H       
  29 H29           -1.7504    -0.2346     0.6230 H       
  30 H30            0.9193    -2.2771    -0.4007 H       
  31 H31            0.8617    -4.7295    -0.5733 H       
  32 H32           -1.2712    -5.9337    -0.3596 H       
  33 H33           -3.3113    -2.2101     0.2087 H       
  34 H34           -2.8333    -6.8090    -0.2040 H       
  35 H35           -4.6563    -9.1324    -0.1172 H       
  36 H36           -8.1150    -6.8869     0.5398 H       
  37 H37           -4.8711    -3.0854     0.3660 H       
  38 H38           -9.2657   -10.4145     0.4422 H       
@<TRIPOS>BOND
   1    1    2 1
   2    1   26 1
   3    1   27 1
   4    1   28 1
   5    2    3 2
   6    2    4 am
   7    4    5 1
   8    4   29 1
   9    5    6 ar
  10    5   10 ar
  11    6    7 ar
  12    6   30 1
  13    7    8 ar
  14    7   31 1
  15    8    9 ar
  16    8   32 1
  17    9   10 ar
  18    9   11 1
  19   10   33 1
  20   11   12 ar
  21   11   19 ar
  22   12   13 ar
  23   12   34 1
  24   13   14 1
  25   13   17 ar
  26   14   15 2
  27   14   35 1
  28   15   16 1
  29   15   23 1
  30   16   17 1
  31   16   36 1
  32   17   18 ar
  33   18   19 ar
  34   18   20 1
  35   19   37 1
  36   20   21 2
  37   20   22 2
  38   23   24 2
  39   23   25 1
  40   25   38 1

#	End of record

