#	Name: ASD00431161
#	Creating user name:	WinNT
#	Creation time:	15. 06. 2019 18:35

#	Modifying user name:	WinNT
#	Modification time:	15. 06. 2019 18:35

#	Program:	/corina/corina34_cracker 3.40 0067  02.08.2006

@<TRIPOS>MOLECULE
ASD00431161
  50   53    0    0    0
SMALL
NO_CHARGES


@<TRIPOS>ATOM
   1 C1            -0.2020     1.3784    -0.1370 C.2     
   2 C2            -0.1898    -0.1285    -0.1296 C.3     
   3 O3             0.8429     1.9931    -0.1727 O.2     
   4 N4            -1.3742     2.0430    -0.1097 N.am    
   5 C5            -1.3861     3.5079    -0.1169 C.3     
   6 C6            -1.3022     4.0115    -1.5592 C.3     
   7 O7            -3.8870     3.4813     0.3577 O.3     
   8 N8            -4.7203     4.0893     0.9883 N.2     
   9 C9            -4.1842     5.0898     1.6483 C.2     
  10 C10           -2.7912     5.0583     1.3485 C.2     
  11 C11           -2.6616     4.0030     0.5148 C.2     
  12 S12           -4.1382     7.3885     3.3980 S.3     
  13 C13           -5.6595     7.8311     4.0399 C.2     
  14 N14           -6.5816     7.0269     3.6082 N.2     
  15 C15           -6.2047     6.0639     2.7960 C.2     
  16 C16           -4.8829     6.0524     2.5238 C.2     
  17 O17           -5.8718     8.8724     4.8793 O.3     
  18 C18           -7.1544     9.1624     5.2249 C.ar    
  19 C19           -7.8884     8.2630     5.9844 C.ar    
  20 C20           -9.1913     8.5576     6.3354 C.ar    
  21 C21           -9.7660     9.7527     5.9285 C.ar    
  22 C22           -9.0322    10.6520     5.1690 C.ar    
  23 C23           -7.7274    10.3601     4.8228 C.ar    
  24 O24          -11.0488    10.0425     6.2737 O.3     
  25 O25          -13.4375    12.1622     4.7245 O.3     
  26 C26          -12.2857    11.3212     4.5913 C.3     
  27 C27          -11.5325    11.3447     5.9387 C.3     
  28 C28          -12.6417    11.7939     6.9285 C.3     
  29 C29          -13.4637    12.7546     6.0329 C.3     
  30 H30            0.8403    -0.4837    -0.1598 H       
  31 H31           -0.6727    -0.4913     0.7777 H       
  32 H32           -0.7280    -0.5005    -1.0014 H       
  33 H33           -2.2100     1.5513    -0.0852 H       
  34 H34           -0.5320     3.8810     0.4484 H       
  35 H35           -2.1563     3.6385    -2.1245 H       
  36 H36           -1.3111     5.1015    -1.5646 H       
  37 H37           -0.3797     3.6534    -2.0161 H       
  38 H38           -2.0187     5.7235     1.7050 H       
  39 H39           -6.8943     5.3432     2.3819 H       
  40 H40           -7.4412     7.3323     6.3010 H       
  41 H41           -9.7629     7.8573     6.9265 H       
  42 H42           -9.4798    11.5823     4.8520 H       
  43 H43           -7.1546    11.0623     4.2352 H       
  44 H44          -12.5965    10.3025     4.3591 H       
  45 H45          -11.6398    11.7014     3.7999 H       
  46 H46          -10.7153    12.0656     5.9137 H       
  47 H47          -13.2454    10.9464     7.2531 H       
  48 H48          -12.2162    12.3208     7.7826 H       
  49 H49          -13.0003    13.7409     6.0109 H       
  50 H50          -14.4891    12.8256     6.3956 H       
@<TRIPOS>BOND
   1    1    2 1
   2    1    3 2
   3    1    4 am
   4    2   30 1
   5    2   31 1
   6    2   32 1
   7    4    5 1
   8    4   33 1
   9    5    6 1
  10    5   11 1
  11    5   34 1
  12    6   35 1
  13    6   36 1
  14    6   37 1
  15    7    8 1
  16    7   11 1
  17    8    9 2
  18    9   10 1
  19    9   16 1
  20   10   11 2
  21   10   38 1
  22   12   13 1
  23   12   16 1
  24   13   14 2
  25   13   17 1
  26   14   15 1
  27   15   16 2
  28   15   39 1
  29   17   18 1
  30   18   19 ar
  31   18   23 ar
  32   19   20 ar
  33   19   40 1
  34   20   21 ar
  35   20   41 1
  36   21   22 ar
  37   21   24 1
  38   22   23 ar
  39   22   42 1
  40   23   43 1
  41   24   27 1
  42   25   26 1
  43   25   29 1
  44   26   27 1
  45   26   44 1
  46   26   45 1
  47   27   28 1
  48   27   46 1
  49   28   29 1
  50   28   47 1
  51   28   48 1
  52   29   49 1
  53   29   50 1

#	End of record

