#	Name: ASD01811568
#	Creating user name:	WinNT
#	Creation time:	15. 06. 2019 19:27

#	Modifying user name:	WinNT
#	Modification time:	15. 06. 2019 19:27

#	Program:	/corina/corina34_cracker 3.40 0067  02.08.2006

@<TRIPOS>MOLECULE
ASD01811568
  35   34    0    0    0
SMALL
NO_CHARGES


@<TRIPOS>ATOM
   1 Si1           -0.0200     1.6268     0.0110 Si      
   2 O2             0.0021    -0.0041     0.0020 O.3     
   3 C3             0.6734    -0.5824     1.1231 C.3     
   4 C4             0.6327    -2.1077     1.0107 C.3     
   5 C5             1.3242    -2.7035     2.1655 C.1     
   6 C6             1.8757    -3.1786     3.0866 C.1     
   7 Si7            2.7683    -3.9476     4.5772 Si      
   8 C8             2.7187    -5.8049     4.4403 C.3     
   9 C9             4.5406    -3.3739     4.6035 C.3     
  10 C10            1.9208    -3.4180     6.1495 C.3     
  11 C11            1.7277     2.2716    -0.0022 C.3     
  12 C12           -0.9211     2.2439    -1.4983 C.3     
  13 C13           -0.8920     2.2276     1.5438 C.3     
  14 H14            1.7103    -0.2468     1.1385 H       
  15 H15            0.1775    -0.2725     2.0430 H       
  16 H16           -0.4042    -2.4434     0.9953 H       
  17 H17            1.1285    -2.4176     0.0908 H       
  18 H18            3.2146    -6.1148     3.5204 H       
  19 H19            3.2308    -6.2461     5.2955 H       
  20 H20            1.6818    -6.1406     4.4250 H       
  21 H21            4.5696    -2.2873     4.6836 H       
  22 H22            5.0526    -3.8151     5.4586 H       
  23 H23            5.0364    -3.6838     3.6836 H       
  24 H24            0.8839    -3.7536     6.1341 H       
  25 H25            2.4328    -3.8591     7.0046 H       
  26 H26            1.9498    -2.3313     6.2296 H       
  27 H27            2.2379     1.9201    -0.8990 H       
  28 H28            1.7130     3.3615     0.0038 H       
  29 H29            2.2549     1.9105     0.8808 H       
  30 H30           -1.9437     1.8666    -1.4906 H       
  31 H31           -0.9359     3.3338    -1.4923 H       
  32 H32           -0.4109     1.8924    -2.3951 H       
  33 H33           -0.3649     1.8665     2.4268 H       
  34 H34           -0.9068     3.3175     1.5498 H       
  35 H35           -1.9146     1.8503     1.5515 H       
@<TRIPOS>BOND
   1    1    2 1
   2    1   11 1
   3    1   12 1
   4    1   13 1
   5    2    3 1
   6    3    4 1
   7    3   14 1
   8    3   15 1
   9    4    5 1
  10    4   16 1
  11    4   17 1
  12    5    6 3
  13    6    7 1
  14    7    8 1
  15    7    9 1
  16    7   10 1
  17    8   18 1
  18    8   19 1
  19    8   20 1
  20    9   21 1
  21    9   22 1
  22    9   23 1
  23   10   24 1
  24   10   25 1
  25   10   26 1
  26   11   27 1
  27   11   28 1
  28   11   29 1
  29   12   30 1
  30   12   31 1
  31   12   32 1
  32   13   33 1
  33   13   34 1
  34   13   35 1

#	End of record

