#	Name: ASD03331666
#	Creating user name:	WinNT
#	Creation time:	15. 06. 2019 20:39

#	Modifying user name:	WinNT
#	Modification time:	15. 06. 2019 20:39

#	Program:	/corina/corina34_cracker 3.40 0067  02.08.2006

@<TRIPOS>MOLECULE
ASD03331666
  41   43    0    0    0
SMALL
NO_CHARGES


@<TRIPOS>ATOM
   1 C1            -0.0165     1.3624     0.0095 C.ar    
   2 C2             0.0021    -0.0041     0.0020 C.ar    
   3 C3             1.2070    -0.6927    -0.0132 C.ar    
   4 C4             2.4052    -0.0124    -0.0205 C.ar    
   5 C5             1.1857     2.0718     0.0019 C.ar    
   6 C6             1.5275     3.4963     0.0063 C.2     
   7 C7             2.4100     1.3784    -0.0131 C.ar    
   8 N8             3.4117     2.3231    -0.0172 N.pl3   
   9 C9             2.8673     3.5784    -0.0061 C.2     
  10 S10            3.7886     5.0804    -0.0068 S.o2    
  11 O11            2.9383     6.0729     0.5511 O.2     
  12 O12            5.0688     4.7661     0.5237 O.2     
  13 N13            4.0298     5.5067    -1.5887 N.am    
  14 C14            2.8871     5.8608    -2.4344 C.3     
  15 C15            4.1369     6.4378    -5.9491 C.ar    
  16 C16            3.6862     5.8076    -4.8053 C.ar    
  17 C17            3.3790     6.5508    -3.6805 C.ar    
  18 C18            3.5220     7.9259    -3.6973 C.ar    
  19 C19            3.9719     8.5609    -4.8387 C.ar    
  20 C20            4.2808     7.8175    -5.9686 C.ar    
  21 C21           -1.2962    -0.7693     0.0108 C.3     
  22 O22            4.7244     8.4397    -7.0924 O.3     
  23 C23            4.8483     9.8624    -7.0403 C.3     
  24 H24           -0.9579     1.8916     0.0169 H       
  25 H25            1.2054    -1.7727    -0.0190 H       
  26 H26            3.3376    -0.5574    -0.0316 H       
  27 H27            0.8333     4.3235     0.0173 H       
  28 H28            4.3618     2.1278    -0.0267 H       
  29 H29            4.9277     5.5220    -1.9554 H       
  30 H30            2.3449     4.9562    -2.7099 H       
  31 H31            2.2232     6.5297    -1.8867 H       
  32 H32            4.3810     5.8565    -6.8259 H       
  33 H33            3.5737     4.7336    -4.7897 H       
  34 H34            3.2814     8.5041    -2.8174 H       
  35 H35            4.0831     9.6351    -4.8514 H       
  36 H36           -1.6194    -0.9483    -1.0147 H       
  37 H37           -1.1522    -1.7232     0.5181 H       
  38 H38           -2.0559    -0.1898     0.5353 H       
  39 H39            3.8752    10.3042    -6.8257 H       
  40 H40            5.5532    10.1373    -6.2557 H       
  41 H41            5.2109    10.2309    -7.9999 H       
@<TRIPOS>BOND
   1    1    2 ar
   2    1    5 ar
   3    1   24 1
   4    2    3 ar
   5    2   21 1
   6    3    4 ar
   7    3   25 1
   8    4    7 ar
   9    4   26 1
  10    5    7 ar
  11    5    6 1
  12    6    9 2
  13    6   27 1
  14    7    8 1
  15    8    9 1
  16    8   28 1
  17    9   10 1
  18   10   11 2
  19   10   12 2
  20   10   13 am
  21   13   14 1
  22   13   29 1
  23   14   17 1
  24   14   30 1
  25   14   31 1
  26   15   16 ar
  27   15   20 ar
  28   15   32 1
  29   16   17 ar
  30   16   33 1
  31   17   18 ar
  32   18   19 ar
  33   18   34 1
  34   19   20 ar
  35   19   35 1
  36   20   22 1
  37   21   36 1
  38   21   37 1
  39   21   38 1
  40   22   23 1
  41   23   39 1
  42   23   40 1
  43   23   41 1

#	End of record

