#	Name: ASD01940231
#	Creating user name:	WinNT
#	Creation time:	15. 06. 2019 20:12

#	Modifying user name:	WinNT
#	Modification time:	15. 06. 2019 20:12

#	Program:	/corina/corina34_cracker 3.40 0067  02.08.2006

@<TRIPOS>MOLECULE
ASD01940231
  42   44    0    0    0
SMALL
NO_CHARGES


@<TRIPOS>ATOM
   1 N1             0.2957     0.8784     0.1093 N.pl3   
   2 N2             0.5010    -0.5072     0.0950 N.2     
   3 C3             1.7888    -0.7297     0.0320 C.2     
   4 C4             2.4450     0.5051     0.0041 C.2     
   5 C5             1.5037     1.4781     0.0527 C.2     
   6 S6             4.1877     0.7516    -0.0794 S.o2    
   7 O7             4.4365     2.0434     0.4577 O.2     
   8 O8             4.7853    -0.4314     0.4331 O.2     
   9 N9             4.5961     0.8251    -1.6826 N.am    
  10 C10            2.4508    -2.0830    -0.0035 C.3     
  11 C11           -1.0013     1.5569     0.1687 C.3     
  12 C12            4.0846     1.8501    -2.4896 C.ar    
  13 C13            3.7600     1.5945    -3.8213 C.ar    
  14 C14            3.2531     2.6136    -4.6160 C.ar    
  15 C15            3.0715     3.8806    -4.0841 C.ar    
  16 C16            3.3949     4.1319    -2.7620 C.ar    
  17 C17            3.8949     3.1189    -1.9638 C.ar    
  18 N18            3.9453     0.3123    -4.3562 N.pl3   
  19 C19            3.9721     0.1301    -5.7424 C.ar    
  20 C20            5.0858     0.5265    -6.4764 C.ar    
  21 C21            5.1084     0.3442    -7.8465 C.ar    
  22 C22            4.0250    -0.2313    -8.4869 C.ar    
  23 C23            2.9170    -0.6255    -7.7593 C.ar    
  24 C24            2.8901    -0.4519    -6.3887 C.ar    
  25 I25            4.0631    -0.5051   -10.5635 I       
  26 F26            6.1431     1.0891    -5.8512 F       
  27 F27            2.5782     4.8723    -4.8577 F       
  28 F28            2.9376     2.3707    -5.9070 F       
  29 Cl29           1.7981     3.1889     0.0439 Cl      
  30 H30            5.1894     0.1586    -2.0630 H       
  31 H31            2.5611    -2.4065    -1.0386 H       
  32 H32            3.4335    -2.0191     0.4638 H       
  33 H33            1.8368    -2.8022     0.5385 H       
  34 H34           -1.2778     1.7217     1.2101 H       
  35 H35           -0.9337     2.5157    -0.3453 H       
  36 H36           -1.7575     0.9382    -0.3144 H       
  37 H37            3.2526     5.1206    -2.3514 H       
  38 H38            4.1416     3.3175    -0.9313 H       
  39 H39            4.0550    -0.4487    -3.7648 H       
  40 H40            5.9721     0.6514    -8.4175 H       
  41 H41            2.0730    -1.0736    -8.2626 H       
  42 H42            2.0260    -0.7644    -5.8212 H       
@<TRIPOS>BOND
   1    1    2 1
   2    1    5 1
   3    1   11 1
   4    2    3 2
   5    3    4 1
   6    3   10 1
   7    4    5 2
   8    4    6 1
   9    5   29 1
  10    6    7 2
  11    6    8 2
  12    6    9 am
  13    9   12 1
  14    9   30 1
  15   10   31 1
  16   10   32 1
  17   10   33 1
  18   11   34 1
  19   11   35 1
  20   11   36 1
  21   12   13 ar
  22   12   17 ar
  23   13   14 ar
  24   13   18 1
  25   14   15 ar
  26   14   28 1
  27   15   16 ar
  28   15   27 1
  29   16   17 ar
  30   16   37 1
  31   17   38 1
  32   18   19 1
  33   18   39 1
  34   19   20 ar
  35   19   24 ar
  36   20   21 ar
  37   20   26 1
  38   21   22 ar
  39   21   40 1
  40   22   23 ar
  41   22   25 1
  42   23   24 ar
  43   23   41 1
  44   24   42 1

#	End of record

