#	Name: ASD03330267
#	Creating user name:	WinNT
#	Creation time:	15. 06. 2019 20:36

#	Modifying user name:	WinNT
#	Modification time:	15. 06. 2019 20:36

#	Program:	/corina/corina34_cracker 3.40 0067  02.08.2006

@<TRIPOS>MOLECULE
ASD03330267
  69   71    0    0    0
SMALL
NO_CHARGES


@<TRIPOS>ATOM
   1 C1            -0.8143     0.4791     0.6303 C.3     
   2 N2            -1.0034    -0.8063    -0.0567 N.3     
   3 C3            -0.2046    -0.8710    -1.2940 C.3     
   4 C4             1.2074    -0.4651    -0.9586 C.2     
   5 N5             1.5560     0.1725     0.1896 N.pl3   
   6 C6             0.5953     0.5439     1.2323 C.3     
   7 C7             2.3414    -0.6398    -1.6821 C.2     
   8 N8             3.3659    -0.1135    -0.9727 N.2     
   9 C9             2.8991     0.3757     0.1544 C.2     
  10 C10            3.7012     1.0365     1.2076 C.ar    
  11 C11            5.0002     1.4651     0.9334 C.ar    
  12 C12            2.4396    -1.2863    -3.0027 C.2     
  13 O13            1.4407    -1.7230    -3.5418 O.2     
  14 C14            3.7341    -2.0366    -4.9259 C.3     
  15 N15            3.6364    -1.3938    -3.6130 N.am    
  16 C16            5.7428     2.0810     1.9198 C.ar    
  17 C17            5.2019     2.2739     3.1784 C.ar    
  18 C18            3.9143     1.8511     3.4565 C.ar    
  19 C19            3.1595     1.2387     2.4773 C.ar    
  20 C20            3.4329    -1.0102    -6.0199 C.3     
  21 C21            5.1266    -2.5802    -5.1167 C.2     
  22 C22            4.4007     0.1680    -5.8942 C.3     
  23 C23            3.6010    -1.6641    -7.3928 C.3     
  24 C24            1.9957    -0.5083    -5.8666 C.3     
  25 C25           -2.4250    -1.0506    -0.3345 C.3     
  26 C26           -2.5770    -2.3712    -1.0921 C.3     
  27 C27           -1.6005    -3.4017    -0.5217 C.3     
  28 O28            6.0499    -2.1198    -4.4792 O.2     
  29 N29            5.3459    -3.5779    -5.9958 N.am    
  30 C30            6.6805    -4.1706    -6.1133 C.3     
  31 C31           -4.0095    -2.8859    -0.9375 C.3     
  32 C32           -2.2730    -2.1465    -2.5747 C.3     
  33 H33           -0.9414     1.2934    -0.0831 H       
  34 H34           -1.5530     0.5769     1.4258 H       
  35 H35           -0.2125    -1.8886    -1.6847 H       
  36 H36           -0.6182    -0.1877    -2.0356 H       
  37 H37            0.8012     1.5569     1.5781 H       
  38 H38            0.6709    -0.1528     2.0671 H       
  39 H39            5.4238     1.3148    -0.0486 H       
  40 H40            3.0141    -2.8528    -4.9852 H       
  41 H41            4.4331    -1.0456    -3.1830 H       
  42 H42            6.7487     2.4130     1.7089 H       
  43 H43            5.7873     2.7562     3.9471 H       
  44 H44            3.4976     2.0046     4.4410 H       
  45 H45            2.1545     0.9090     2.6956 H       
  46 H46            5.4246    -0.1895    -6.0034 H       
  47 H47            4.1862     0.8992    -6.6735 H       
  48 H48            4.2809     0.6339    -4.9160 H       
  49 H49            2.9258    -2.5158    -7.4748 H       
  50 H50            3.3670    -0.9386    -8.1719 H       
  51 H51            4.6301    -2.0038    -7.5099 H       
  52 H52            1.8759    -0.0425    -4.8884 H       
  53 H53            1.7811     0.2228    -6.6460 H       
  54 H54            1.3062    -1.3478    -5.9561 H       
  55 H55           -2.9746    -1.1055     0.6052 H       
  56 H56           -2.8220    -0.2363    -0.9406 H       
  57 H57           -1.8836    -3.6422     0.5030 H       
  58 H58           -1.6312    -4.3063    -1.1290 H       
  59 H59           -0.5910    -2.9907    -0.5328 H       
  60 H60            4.6201    -3.9036    -6.5508 H       
  61 H61            6.9750    -4.5956    -5.1538 H       
  62 H62            6.6641    -4.9560    -6.8689 H       
  63 H63            7.3954    -3.4010    -6.4046 H       
  64 H64           -4.7052    -2.1517    -1.3439 H       
  65 H65           -4.1178    -3.8266    -1.4773 H       
  66 H66           -4.2261    -3.0459     0.1187 H       
  67 H67           -1.2120    -1.9302    -2.6993 H       
  68 H68           -2.5296    -3.0436    -3.1382 H       
  69 H69           -2.8610    -1.3057    -2.9428 H       
@<TRIPOS>BOND
   1    1    2 1
   2    1    6 1
   3    1   33 1
   4    1   34 1
   5    2    3 1
   6    2   25 1
   7    3    4 1
   8    3   35 1
   9    3   36 1
  10    4    5 1
  11    4    7 2
  12    5    6 1
  13    5    9 1
  14    6   37 1
  15    6   38 1
  16    7    8 1
  17    7   12 1
  18    8    9 2
  19    9   10 1
  20   10   11 ar
  21   10   19 ar
  22   11   16 ar
  23   11   39 1
  24   12   13 2
  25   12   15 am
  26   14   15 1
  27   14   21 1
  28   14   20 1
  29   14   40 1
  30   15   41 1
  31   16   17 ar
  32   16   42 1
  33   17   18 ar
  34   17   43 1
  35   18   19 ar
  36   18   44 1
  37   19   45 1
  38   20   22 1
  39   20   23 1
  40   20   24 1
  41   21   28 2
  42   21   29 am
  43   22   46 1
  44   22   47 1
  45   22   48 1
  46   23   49 1
  47   23   50 1
  48   23   51 1
  49   24   52 1
  50   24   53 1
  51   24   54 1
  52   25   26 1
  53   25   55 1
  54   25   56 1
  55   26   27 1
  56   26   31 1
  57   26   32 1
  58   27   57 1
  59   27   58 1
  60   27   59 1
  61   29   30 1
  62   29   60 1
  63   30   61 1
  64   30   62 1
  65   30   63 1
  66   31   64 1
  67   31   65 1
  68   31   66 1
  69   32   67 1
  70   32   68 1
  71   32   69 1

#	End of record

