#	Name: ASD07300170
#	Creating user name:	WinNT
#	Creation time:	15. 06. 2019 21:09

#	Modifying user name:	WinNT
#	Modification time:	15. 06. 2019 21:09

#	Program:	/corina/corina34_cracker 3.40 0067  02.08.2006

@<TRIPOS>MOLECULE
ASD07300170
  44   47    0    0    0
SMALL
NO_CHARGES


@<TRIPOS>ATOM
   1 C1            -0.8641     0.9879    -0.1307 C.ar    
   2 C2            -1.0281    -0.3826    -0.3545 C.ar    
   3 C3             0.0566    -1.2320    -0.1952 C.ar    
   4 C4             1.2719    -0.6803     0.1837 C.ar    
   5 C5             1.3621     0.6837     0.3882 C.ar    
   6 N6             0.3142     1.4689     0.2299 N.ar    
   7 C7            -2.9780     0.6168    -0.7028 C.2     
   8 N8            -2.1020     1.5786    -0.3576 N.am    
   9 N9            -2.3580    -0.5786    -0.7148 N.am    
  10 O10           -4.1513     0.8002    -0.9679 O.2     
  11 C11           -2.3898     2.9470    -0.2453 C.ar    
  12 C12           -3.6735     3.4099    -0.5007 C.ar    
  13 C13           -3.9565     4.7567    -0.3896 C.ar    
  14 C14           -2.9580     5.6476    -0.0231 C.ar    
  15 C15           -1.6749     5.1856     0.2323 C.ar    
  16 C16           -1.3924     3.8381     0.1270 C.ar    
  17 O17           -3.2368     6.9739     0.0854 O.3     
  18 C18           -3.9150     7.3945     1.1825 C.ar    
  19 C19           -4.3127     8.7223     1.2785 C.ar    
  20 C20           -5.0038     9.1384     2.4028 C.ar    
  21 C21           -5.2741     8.2071     3.3963 C.ar    
  22 C22           -4.8487     6.9038     3.2342 C.ar    
  23 N23           -4.1961     6.5353     2.1481 N.ar    
  24 C24           -6.0236     8.6147     4.6386 C.3     
  25 F25           -7.3965     8.4422     4.4326 F       
  26 F26           -5.6100     7.8212     5.7140 F       
  27 F27           -5.7598     9.9590     4.9223 F       
  28 C28           -2.9784    -1.8647    -1.0422 C.3     
  29 C29           -3.5431    -2.4974     0.2313 C.3     
  30 H30           -0.0423    -2.2945    -0.3613 H       
  31 H31            2.1387    -1.3104     0.3179 H       
  32 H32            2.3076     1.1142     0.6835 H       
  33 H33           -4.4507     2.7165    -0.7867 H       
  34 H34           -4.9551     5.1169    -0.5883 H       
  35 H35           -0.8979     5.8794     0.5172 H       
  36 H36           -0.3947     3.4779     0.3301 H       
  37 H37           -4.0851     9.4203     0.4865 H       
  38 H38           -5.3253    10.1643     2.5052 H       
  39 H39           -5.0562     6.1755     4.0044 H       
  40 H40           -3.7851    -1.7072    -1.7581 H       
  41 H41           -2.2312    -2.5284    -1.4771 H       
  42 H42           -4.2904    -1.8337     0.6662 H       
  43 H43           -4.0047    -3.4543    -0.0122 H       
  44 H44           -2.7364    -2.6549     0.9472 H       
@<TRIPOS>BOND
   1    1    2 ar
   2    1    6 ar
   3    1    8 1
   4    2    3 ar
   5    2    9 1
   6    3    4 ar
   7    3   30 1
   8    4    5 ar
   9    4   31 1
  10    5    6 ar
  11    5   32 1
  12    7    8 am
  13    7    9 am
  14    7   10 2
  15    8   11 1
  16    9   28 1
  17   11   12 ar
  18   11   16 ar
  19   12   13 ar
  20   12   33 1
  21   13   14 ar
  22   13   34 1
  23   14   15 ar
  24   14   17 1
  25   15   16 ar
  26   15   35 1
  27   16   36 1
  28   17   18 1
  29   18   19 ar
  30   18   23 ar
  31   19   20 ar
  32   19   37 1
  33   20   21 ar
  34   20   38 1
  35   21   22 ar
  36   21   24 1
  37   22   23 ar
  38   22   39 1
  39   24   25 1
  40   24   26 1
  41   24   27 1
  42   28   29 1
  43   28   40 1
  44   28   41 1
  45   29   42 1
  46   29   43 1
  47   29   44 1

#	End of record

