#	Name: ASD03320081
#	Creating user name:	WinNT
#	Creation time:	15. 06. 2019 20:36

#	Modifying user name:	WinNT
#	Modification time:	15. 06. 2019 20:36

#	Program:	/corina/corina34_cracker 3.40 0067  02.08.2006

@<TRIPOS>MOLECULE
ASD03320081
  52   55    0    0    0
SMALL
NO_CHARGES


@<TRIPOS>ATOM
   1 C1             0.5836     0.8721    -1.2093 C.2     
   2 C2             0.4021    -0.5511    -0.8650 C.ar    
   3 C3             1.2106    -1.1544     0.1077 C.ar    
   4 C4             1.0001    -2.4995     0.3975 C.ar    
   5 C5            -0.0084    -3.1952    -0.2924 C.ar    
   6 N6            -0.7488    -2.5844    -1.2050 N.ar    
   7 C7            -0.5812    -1.3123    -1.5002 C.ar    
   8 O8             1.4390     1.5292    -0.6478 O.2     
   9 N9            -0.1949     1.4423    -2.1502 N.am    
  10 C10           -0.0996     2.8173    -2.3987 C.ar    
  11 C11           -0.4466     3.3238    -3.6442 C.ar    
  12 C12           -0.3529     4.6796    -3.8883 C.ar    
  13 C13            0.0878     5.5357    -2.8896 C.ar    
  14 C14            0.4350     5.0304    -1.6452 C.ar    
  15 C15            0.3364     3.6755    -1.3978 C.ar    
  16 O16            0.1798     6.8707    -3.1307 O.3     
  17 C17            0.6410     7.6936    -2.0573 C.3     
  18 F18            1.9262     7.2903    -1.6795 F       
  19 F19            0.6748     9.0285    -2.4743 F       
  20 F20           -0.2266     7.5674    -0.9671 F       
  21 N21            3.1656    -3.4213     1.3438 N.pl3   
  22 N22            3.5432    -4.0945     2.5127 N.2     
  23 C23            2.4806    -4.2604     3.2587 C.2     
  24 C24            1.3839    -3.7027     2.6012 C.2     
  25 C25            1.8249    -3.1864     1.4151 C.2     
  26 C26           -0.0349    -3.6750     3.1084 C.3     
  27 N27           -0.2292    -4.5317    -0.0154 N.3     
  28 C28           -1.6459    -4.7764     0.3121 C.3     
  29 C29           -2.1649    -5.8450    -0.6729 C.3     
  30 C30           -0.8655    -6.5572    -1.1325 C.3     
  31 C31            0.1407    -5.3799    -1.1685 C.3     
  32 O32           -3.0366    -6.7627    -0.0096 O.3     
  33 H33            1.9769    -0.5906     0.6189 H       
  34 H34           -1.2105    -0.8520    -2.2476 H       
  35 H35           -0.8211     0.9005    -2.6552 H       
  36 H36           -0.7894     2.6574    -4.4219 H       
  37 H37           -0.6224     5.0737    -4.8571 H       
  38 H38            0.7784     5.6975    -0.8683 H       
  39 H39            0.6022     3.2828    -0.4275 H       
  40 H40            3.7534    -3.1647     0.6162 H       
  41 H41            2.4568    -4.7480     4.2221 H       
  42 H42           -0.2146    -2.7372     3.6340 H       
  43 H43           -0.7231    -3.7577     2.2672 H       
  44 H44           -0.1932    -4.5101     3.7908 H       
  45 H45           -1.7321    -5.1422     1.3352 H       
  46 H46           -2.2177    -3.8558     0.1957 H       
  47 H47           -2.6679    -5.3771    -1.5192 H       
  48 H48           -0.5573    -7.3122    -0.4092 H       
  49 H49           -0.9896    -6.9952    -2.1229 H       
  50 H50            0.0380    -4.8214    -2.0989 H       
  51 H51            1.1603    -5.7486    -1.0567 H       
  52 H52           -3.3904    -7.4548    -0.5849 H       
@<TRIPOS>BOND
   1    1    2 1
   2    1    8 2
   3    1    9 am
   4    2    3 ar
   5    2    7 ar
   6    3    4 ar
   7    3   33 1
   8    4    5 ar
   9    4   25 1
  10    5    6 ar
  11    5   27 1
  12    6    7 ar
  13    7   34 1
  14    9   10 1
  15    9   35 1
  16   10   11 ar
  17   10   15 ar
  18   11   12 ar
  19   11   36 1
  20   12   13 ar
  21   12   37 1
  22   13   14 ar
  23   13   16 1
  24   14   15 ar
  25   14   38 1
  26   15   39 1
  27   16   17 1
  28   17   18 1
  29   17   19 1
  30   17   20 1
  31   21   22 1
  32   21   25 1
  33   21   40 1
  34   22   23 2
  35   23   24 1
  36   23   41 1
  37   24   25 2
  38   24   26 1
  39   26   42 1
  40   26   43 1
  41   26   44 1
  42   27   28 1
  43   27   31 1
  44   28   29 1
  45   28   45 1
  46   28   46 1
  47   29   30 1
  48   29   32 1
  49   29   47 1
  50   30   31 1
  51   30   48 1
  52   30   49 1
  53   31   50 1
  54   31   51 1
  55   32   52 1

#	End of record

