#	Name: ASD01917136
#	Creating user name:	WinNT
#	Creation time:	15. 06. 2019 20:08

#	Modifying user name:	WinNT
#	Modification time:	15. 06. 2019 20:08

#	Program:	/corina/corina34_cracker 3.40 0067  02.08.2006

@<TRIPOS>MOLECULE
ASD01917136
  46   49    0    0    0
SMALL
NO_CHARGES


@<TRIPOS>ATOM
   1 C1            -0.0157     1.3037     0.0092 C.2     
   2 N2             0.0021    -0.0041     0.0020 N.2     
   3 C3            -1.2528    -0.4742     0.0123 C.2     
   4 N4            -2.0847     0.5439     0.0262 N.2     
   5 N5            -1.2992     1.7080     0.0295 N.pl3   
   6 C6            -1.6395    -1.9068     0.0081 C.ar    
   7 C7            -0.6577    -2.8955    -0.0072 C.ar    
   8 C8            -1.0217    -4.2264    -0.0105 C.ar    
   9 C9            -2.3611    -4.5804     0.0008 C.ar    
  10 C10           -3.3406    -3.6005     0.0155 C.ar    
  11 C11           -2.9854    -2.2673     0.0252 C.ar    
  12 Br12           1.5015     2.4324     0.0008 Br      
  13 C13           -1.7822     3.0910     0.0438 C.3     
  14 C14           -1.9381     3.5540     1.4694 C.2     
  15 N15           -2.3732     4.8030     1.7285 N.am    
  16 C16           -2.5324     5.2750     3.1124 C.3     
  17 C17           -2.6957     5.7322     0.6349 C.3     
  18 C18           -1.9560     7.0511     0.8828 C.3     
  19 N19           -2.2756     7.5424     2.2298 N.3     
  20 C20           -1.7995     6.6129     3.2577 C.3     
  21 O21           -1.6719     2.8027     2.3835 O.2     
  22 C22           -1.7547     8.8151     2.4324 C.ar    
  23 N23           -1.0756     9.4081     1.4629 N.ar    
  24 C24           -0.5648    10.6155     1.6142 C.ar    
  25 C25           -0.7217    11.3073     2.7982 C.ar    
  26 C26           -1.4277    10.7206     3.8404 C.ar    
  27 C27           -1.9567     9.4569     3.6503 C.ar    
  28 F28           -2.7132    -5.8847    -0.0030 F       
  29 H29            0.3867    -2.6205    -0.0167 H       
  30 H30           -0.2614    -4.9933    -0.0223 H       
  31 H31           -4.3836    -3.8808     0.0236 H       
  32 H32           -3.7495    -1.5042     0.0371 H       
  33 H33           -1.0653     3.7315    -0.4700 H       
  34 H34           -2.7457     3.1446    -0.4631 H       
  35 H35           -3.5910     5.4116     3.3332 H       
  36 H36           -2.1032     4.5459     3.7996 H       
  37 H37           -2.3744     5.3051    -0.3151 H       
  38 H38           -3.7703     5.9134     0.6134 H       
  39 H39           -0.8816     6.8865     0.8010 H       
  40 H40           -2.2688     7.7881     0.1431 H       
  41 H41           -2.0013     7.0281     4.2451 H       
  42 H42           -0.7269     6.4586     3.1399 H       
  43 H43           -0.0165    11.0680     0.8012 H       
  44 H44           -0.2995    12.2946     2.9132 H       
  45 H45           -1.5641    11.2411     4.7769 H       
  46 H46           -2.5115     8.9714     4.4395 H       
@<TRIPOS>BOND
   1    1    2 2
   2    1   12 1
   3    1    5 1
   4    2    3 1
   5    3    4 2
   6    3    6 1
   7    4    5 1
   8    5   13 1
   9    6    7 ar
  10    6   11 ar
  11    7    8 ar
  12    7   29 1
  13    8    9 ar
  14    8   30 1
  15    9   10 ar
  16    9   28 1
  17   10   11 ar
  18   10   31 1
  19   11   32 1
  20   13   14 1
  21   13   33 1
  22   13   34 1
  23   14   15 am
  24   14   21 2
  25   15   16 1
  26   15   17 1
  27   16   20 1
  28   16   35 1
  29   16   36 1
  30   17   18 1
  31   17   37 1
  32   17   38 1
  33   18   19 1
  34   18   39 1
  35   18   40 1
  36   19   20 1
  37   19   22 1
  38   20   41 1
  39   20   42 1
  40   22   23 ar
  41   22   27 ar
  42   23   24 ar
  43   24   25 ar
  44   24   43 1
  45   25   26 ar
  46   25   44 1
  47   26   27 ar
  48   26   45 1
  49   27   46 1

#	End of record

