#	Name: ASD03330472
#	Creating user name:	WinNT
#	Creation time:	15. 06. 2019 20:37

#	Modifying user name:	WinNT
#	Modification time:	15. 06. 2019 20:37

#	Program:	/corina/corina34_cracker 3.40 0067  02.08.2006

@<TRIPOS>MOLECULE
ASD03330472
  58   60    0    0    0
SMALL
NO_CHARGES


@<TRIPOS>ATOM
   1 C1             0.1563    -0.4281     1.0256 C.3     
   2 N2             0.1696    -1.8133     0.5346 N.3     
   3 C3             0.6120    -1.8758    -0.8701 C.3     
   4 C4             1.8887    -1.0845    -0.9920 C.2     
   5 N5             2.3232    -0.2049    -0.0519 N.pl3   
   6 C6             1.5949     0.0794     1.1879 C.3     
   7 C7             2.8032    -1.0870    -1.9938 C.2     
   8 N8             3.7827    -0.2168    -1.6574 N.2     
   9 C9             3.4994     0.3159    -0.4899 C.2     
  10 C10            4.3229     1.3144     0.2273 C.ar    
  11 C11            2.7411    -1.8927    -3.2262 C.2     
  12 O12            1.8033    -2.6438    -3.4150 O.2     
  13 C13            3.6616    -2.5982    -5.3691 C.3     
  14 N14            3.7234    -1.7972    -4.1440 N.am    
  15 C15           -1.1470    -2.4433     0.7005 C.3     
  16 C16            5.3320     1.9988    -0.4450 C.ar    
  17 C17            2.8152    -1.8679    -6.4137 C.3     
  18 C18            3.3708    -0.4582    -6.6253 C.3     
  19 C19            2.8602    -2.6376    -7.7352 C.3     
  20 C20            1.3681    -1.7778    -5.9251 C.3     
  21 C21            5.0548    -2.8035    -5.9058 C.2     
  22 O22            5.9299    -2.0064    -5.6419 O.2     
  23 N23            5.3282    -3.8730    -6.6790 N.am    
  24 C24            6.7047    -4.1349    -7.1068 C.3     
  25 C25            6.1034     2.9380     0.2381 C.ar    
  26 C26            5.8593     3.1861     1.5910 C.ar    
  27 C27            4.8569     2.5034     2.2509 C.ar    
  28 C28            4.0859     1.5763     1.5782 C.ar    
  29 C29            7.1436     3.6463    -0.4453 C.1     
  30 N30            7.9687     4.2081    -0.9875 N.1     
  31 H31           -0.3727     0.2041     0.3124 H       
  32 H32           -0.3523    -0.3900     1.9889 H       
  33 H33            0.7927    -2.9127    -1.1536 H       
  34 H34           -0.1521    -1.4442    -1.5165 H       
  35 H35            1.5873     1.1537     1.3718 H       
  36 H36            2.0740    -0.4337     2.0217 H       
  37 H37            3.2110    -3.5658    -5.1482 H       
  38 H38            4.4713    -1.1982    -3.9933 H       
  39 H39           -1.9037    -1.8417     0.1968 H       
  40 H40           -1.1289    -3.4427     0.2658 H       
  41 H41           -1.3854    -2.5130     1.7618 H       
  42 H42            5.5165     1.8028    -1.4909 H       
  43 H43            4.4017    -0.5224    -6.9735 H       
  44 H44            2.7677     0.0621    -7.3695 H       
  45 H45            3.3387     0.0902    -5.6839 H       
  46 H46            2.4305    -3.6292    -7.5930 H       
  47 H47            2.2874    -2.0982    -8.4895 H       
  48 H48            3.8948    -2.7338    -8.0646 H       
  49 H49            1.3360    -1.2294    -4.9836 H       
  50 H50            0.7651    -1.2575    -6.6692 H       
  51 H51            0.9723    -2.7821    -5.7742 H       
  52 H52            4.6136    -4.4694    -6.9522 H       
  53 H53            7.3372    -4.2751    -6.2302 H       
  54 H54            6.7293    -5.0354    -7.7204 H       
  55 H55            7.0716    -3.2890    -7.6881 H       
  56 H56            6.4561     3.9130     2.1219 H       
  57 H57            4.6721     2.6987     3.2969 H       
  58 H58            3.3034     1.0458     2.1005 H       
@<TRIPOS>BOND
   1    1    2 1
   2    1    6 1
   3    1   31 1
   4    1   32 1
   5    2    3 1
   6    2   15 1
   7    3    4 1
   8    3   33 1
   9    3   34 1
  10    4    5 1
  11    4    7 2
  12    5    6 1
  13    5    9 1
  14    6   35 1
  15    6   36 1
  16    7    8 1
  17    7   11 1
  18    8    9 2
  19    9   10 1
  20   10   16 ar
  21   10   28 ar
  22   11   12 2
  23   11   14 am
  24   13   14 1
  25   13   17 1
  26   13   21 1
  27   13   37 1
  28   14   38 1
  29   15   39 1
  30   15   40 1
  31   15   41 1
  32   16   25 ar
  33   16   42 1
  34   17   18 1
  35   17   19 1
  36   17   20 1
  37   18   43 1
  38   18   44 1
  39   18   45 1
  40   19   46 1
  41   19   47 1
  42   19   48 1
  43   20   49 1
  44   20   50 1
  45   20   51 1
  46   21   22 2
  47   21   23 am
  48   23   24 1
  49   23   52 1
  50   24   53 1
  51   24   54 1
  52   24   55 1
  53   25   26 ar
  54   25   29 1
  55   26   27 ar
  56   26   56 1
  57   27   28 ar
  58   27   57 1
  59   28   58 1
  60   29   30 3

#	End of record

