#	Name: ASD01120196
#	Creating user name:	WinNT
#	Creation time:	15. 06. 2019 18:59

#	Modifying user name:	WinNT
#	Modification time:	15. 06. 2019 18:59

#	Program:	/corina/corina34_cracker 3.40 0067  02.08.2006

@<TRIPOS>MOLECULE
ASD01120196
  55   58    0    0    0
SMALL
NO_CHARGES


@<TRIPOS>ATOM
   1 C1            -0.0167     1.3828     0.0096 C.ar    
   2 C2             0.0021    -0.0041     0.0020 C.ar    
   3 C3            -1.1785    -0.7198     0.0090 C.ar    
   4 C4            -2.3914    -0.0514     0.0242 C.ar    
   5 C5            -2.4156     1.3515     0.0324 C.ar    
   6 C6            -1.2159     2.0636     0.0305 C.ar    
   7 O7            -3.6828    -0.4556     0.0344 O.3     
   8 C8            -4.4648     0.6381     0.0482 C.2     
   9 N9            -3.7266     1.7186     0.0472 N.2     
  10 Cl10           1.4775     2.2664     0.0001 Cl      
  11 N11           -5.8411     0.6234     0.0614 N.am    
  12 S12           -6.6843     2.0485     0.0777 S.o2    
  13 O13           -8.0618     1.7001     0.0544 O.2     
  14 O14           -6.1020     2.8477     1.0983 O.2     
  15 C15           -6.3526     2.8683    -1.4462 C.ar    
  16 C16           -7.1608     2.6400    -2.5428 C.ar    
  17 C17           -6.8993     3.2862    -3.7425 C.ar    
  18 C18           -5.8263     4.1602    -3.8373 C.ar    
  19 C19           -5.0208     4.3851    -2.7375 C.ar    
  20 C20           -5.2866     3.7441    -1.5418 C.ar    
  21 O21           -7.6927     3.0629    -4.8230 O.3     
  22 C22           -7.3641     3.7625    -6.0249 C.3     
  23 C23           -8.3461     3.3920    -7.1063 C.ar    
  24 C24           -9.5051     4.1276    -7.2690 C.ar    
  25 C25          -10.4059     3.7877    -8.2609 C.ar    
  26 C26          -10.1475     2.7125    -9.0904 C.ar    
  27 C27           -8.9881     1.9775    -8.9283 C.ar    
  28 C28           -8.0852     2.3200    -7.9392 C.ar    
  29 C29          -11.1300     2.3414   -10.1711 C.3     
  30 C30          -11.2983     3.5187   -11.1337 C.3     
  31 C31          -10.6082     1.1253   -10.9391 C.3     
  32 C32          -12.4812     2.0032    -9.5378 C.3     
  33 H33            0.9466    -0.5276    -0.0098 H       
  34 H34           -1.1563    -1.7995     0.0023 H       
  35 H35           -1.2263     3.1436     0.0371 H       
  36 H36           -6.3171    -0.2218     0.0612 H       
  37 H37           -7.9954     1.9588    -2.4666 H       
  38 H38           -5.6205     4.6641    -4.7701 H       
  39 H39           -4.1853     5.0655    -2.8108 H       
  40 H40           -4.6558     3.9212    -0.6833 H       
  41 H41           -7.4104     4.8364    -5.8444 H       
  42 H42           -6.3568     3.4901    -6.3400 H       
  43 H43           -9.7070     4.9676    -6.6209 H       
  44 H44          -11.3118     4.3619    -8.3876 H       
  45 H45           -8.7863     1.1372    -9.5762 H       
  46 H46           -7.1775     1.7480    -7.8149 H       
  47 H47          -10.3357     3.7596   -11.5848 H       
  48 H48          -12.0089     3.2503   -11.9153 H       
  49 H49          -11.6701     4.3850   -10.5865 H       
  50 H50          -10.4883     0.2866   -10.2534 H       
  51 H51          -11.3188     0.8569   -11.7208 H       
  52 H52           -9.6456     1.3662   -11.3903 H       
  53 H53          -12.8529     2.8695    -8.9907 H       
  54 H54          -13.1918     1.7348   -10.3195 H       
  55 H55          -12.3613     1.1645    -8.8521 H       
@<TRIPOS>BOND
   1    1    2 ar
   2    1   10 1
   3    1    6 ar
   4    2    3 ar
   5    2   33 1
   6    3    4 ar
   7    3   34 1
   8    4    5 ar
   9    4    7 1
  10    5    6 ar
  11    5    9 1
  12    6   35 1
  13    7    8 1
  14    8    9 2
  15    8   11 1
  16   11   12 am
  17   11   36 1
  18   12   13 2
  19   12   14 2
  20   12   15 1
  21   15   16 ar
  22   15   20 ar
  23   16   17 ar
  24   16   37 1
  25   17   18 ar
  26   17   21 1
  27   18   19 ar
  28   18   38 1
  29   19   20 ar
  30   19   39 1
  31   20   40 1
  32   21   22 1
  33   22   23 1
  34   22   41 1
  35   22   42 1
  36   23   24 ar
  37   23   28 ar
  38   24   25 ar
  39   24   43 1
  40   25   26 ar
  41   25   44 1
  42   26   27 ar
  43   26   29 1
  44   27   28 ar
  45   27   45 1
  46   28   46 1
  47   29   30 1
  48   29   31 1
  49   29   32 1
  50   30   47 1
  51   30   48 1
  52   30   49 1
  53   31   50 1
  54   31   51 1
  55   31   52 1
  56   32   53 1
  57   32   54 1
  58   32   55 1

#	End of record

