#	Name: ASD01200283
#	Creating user name:	WinNT
#	Creation time:	15. 06. 2019 19:08

#	Modifying user name:	WinNT
#	Modification time:	15. 06. 2019 19:08

#	Program:	/corina/corina34_cracker 3.40 0067  02.08.2006

@<TRIPOS>MOLECULE
ASD01200283
  40   42    0    0    0
SMALL
NO_CHARGES


@<TRIPOS>ATOM
   1 C1            -0.0167     1.3781     0.0096 C.ar    
   2 C2             0.0021    -0.0041     0.0020 C.ar    
   3 C3             1.2084    -0.6789    -0.0132 C.ar    
   4 C4             2.3960     0.0285    -0.0212 C.ar    
   5 C5             2.3773     1.4107    -0.0145 C.ar    
   6 C6             1.1710     2.0855     0.0021 C.ar    
   7 C7             3.6720     2.1819    -0.0223 C.3     
   8 C8             4.0974     2.4497    -1.4674 C.3     
   9 C9             5.3922     3.2209    -1.4751 C.2     
  10 N10            5.9608     3.5712    -2.6457 N.am    
  11 O11            5.9224     3.5263    -0.4279 O.2     
  12 C12            7.1616     4.2865    -2.6530 C.2     
  13 N13            7.8061     4.6810    -3.7243 N.2     
  14 N14            8.9535     5.3610    -3.2852 N.pl3   
  15 C15            8.9223     5.3295    -1.9330 C.2     
  16 N16            7.8354     4.6838    -1.5678 N.2     
  17 N17            9.8635     5.8826    -1.0847 N.pl3   
  18 C18            9.9361     5.9546    -4.0882 C.ar    
  19 C19           10.2886     5.3743    -5.2995 C.ar    
  20 C20           11.2573     5.9621    -6.0892 C.ar    
  21 C21           11.8762     7.1271    -5.6745 C.ar    
  22 C22           11.5274     7.7074    -4.4688 C.ar    
  23 C23           10.5554     7.1275    -3.6773 C.ar    
  24 H24           -0.9592     1.9054     0.0170 H       
  25 H25           -0.9258    -0.5567     0.0083 H       
  26 H26            1.2231    -1.7588    -0.0184 H       
  27 H27            3.3386    -0.4987    -0.0324 H       
  28 H28            1.1563     3.1654     0.0069 H       
  29 H29            3.5333     3.1300     0.4972 H       
  30 H30            4.4441     1.6008     0.4820 H       
  31 H31            4.2362     1.5016    -1.9869 H       
  32 H32            3.3254     3.0308    -1.9717 H       
  33 H33            5.5367     3.3270    -3.4832 H       
  34 H34           10.6336     6.3453    -1.4503 H       
  35 H35            9.7537     5.8079    -0.1238 H       
  36 H36            9.8061     4.4640    -5.6236 H       
  37 H37           11.5319     5.5112    -7.0314 H       
  38 H38           12.6339     7.5845    -6.2935 H       
  39 H39           12.0126     8.6173    -4.1477 H       
  40 H40           10.2831     7.5814    -2.7359 H       
@<TRIPOS>BOND
   1    1    2 ar
   2    1    6 ar
   3    1   24 1
   4    2    3 ar
   5    2   25 1
   6    3    4 ar
   7    3   26 1
   8    4    5 ar
   9    4   27 1
  10    5    6 ar
  11    5    7 1
  12    6   28 1
  13    7    8 1
  14    7   29 1
  15    7   30 1
  16    8    9 1
  17    8   31 1
  18    8   32 1
  19    9   10 am
  20    9   11 2
  21   10   12 1
  22   10   33 1
  23   12   13 2
  24   12   16 1
  25   13   14 1
  26   14   15 1
  27   14   18 1
  28   15   16 2
  29   15   17 1
  30   17   34 1
  31   17   35 1
  32   18   19 ar
  33   18   23 ar
  34   19   20 ar
  35   19   36 1
  36   20   21 ar
  37   20   37 1
  38   21   22 ar
  39   21   38 1
  40   22   23 ar
  41   22   39 1
  42   23   40 1

#	End of record

