#	Name: ASD06660010
#	Creating user name:	WinNT
#	Creation time:	15. 06. 2019 21:07

#	Modifying user name:	WinNT
#	Modification time:	15. 06. 2019 21:07

#	Program:	/corina/corina34_cracker 3.40 0067  02.08.2006

@<TRIPOS>MOLECULE
ASD06660010
  72   75    0    0    0
SMALL
NO_CHARGES


@<TRIPOS>ATOM
   1 C1            -1.9795     1.7553     0.1520 C.2     
   2 C2            -1.6377     0.4914    -0.5941 C.3     
   3 C3            -2.3202     0.5070    -1.9633 C.3     
   4 O4            -1.1007     2.5085     0.4988 O.2     
   5 O5            -3.2606     2.0471     0.4265 O.3     
   6 C6            -2.0958    -0.8147    -2.6516 C.ar    
   7 C7            -2.9304    -1.8837    -2.3814 C.ar    
   8 C8            -2.7275    -3.0964    -3.0103 C.ar    
   9 C9            -1.6838    -3.2415    -3.9154 C.ar    
  10 C10           -0.8473    -2.1656    -4.1846 C.ar    
  11 C11           -1.0593    -0.9542    -3.5563 C.ar    
  12 N12           -1.4755    -4.4667    -4.5530 N.3     
  13 C13           -2.7574    -5.0913    -4.9293 C.3     
  14 C14           -2.1736    -6.4350    -4.4705 C.3     
  15 C15           -1.2998    -5.5513    -3.5692 C.3     
  16 C16           -3.1626    -7.3208    -3.7102 C.3     
  17 N17           -2.5401    -8.6164    -3.4273 N.pl3   
  18 C18           -3.2510    -9.5939    -2.7408 C.ar    
  19 C19           -4.5534    -9.3353    -2.3251 C.ar    
  20 C20           -5.2491   -10.3169    -1.6430 C.ar    
  21 C21           -4.6167   -11.5290    -1.3985 C.ar    
  22 C22           -3.3226   -11.7175    -1.8397 C.ar    
  23 N23           -2.6847   -10.7648    -2.4931 N.ar    
  24 C24            0.5998     0.0406     0.2587 C.2     
  25 C25            2.0539    -0.1470     0.0515 C.ar    
  26 C26            2.5668    -1.4254    -0.1746 C.ar    
  27 C27            3.9194    -1.6013    -0.3671 C.ar    
  28 C28            4.7786    -0.4986    -0.3363 C.ar    
  29 C29            4.2636     0.7812    -0.1102 C.ar    
  30 C30            2.9095     0.9551     0.0768 C.ar    
  31 O31            0.1151    -0.1360     1.3590 O.2     
  32 N32           -0.1861     0.4072    -0.7729 N.am    
  33 C33            2.3532     2.3353     0.3144 C.3     
  34 C34            1.6406    -2.6136    -0.2077 C.3     
  35 C35            1.0578    -2.7670    -1.6140 C.3     
  36 C36            6.2262    -0.6854    -0.5416 C.2     
  37 O37            6.6723    -1.7955    -0.7373 O.2     
  38 C38            7.1516     0.5035    -0.5084 C.3     
  39 H39           -1.9844    -0.3714    -0.0252 H       
  40 H40           -3.3898     0.6725    -1.8343 H       
  41 H41           -1.8992     1.3087    -2.5700 H       
  42 H42           -3.4305     2.8688     0.9071 H       
  43 H43           -3.7415    -1.7703    -1.6773 H       
  44 H44           -3.3794    -3.9309    -2.7986 H       
  45 H45           -0.0349    -2.2752    -4.8877 H       
  46 H46           -0.4122    -0.1159    -3.7687 H       
  47 H47           -3.5989    -4.7542    -4.3240 H       
  48 H48           -2.9632    -5.0498    -5.9989 H       
  49 H49           -1.6207    -6.9686    -5.2435 H       
  50 H50           -0.2703    -5.8997    -3.4862 H       
  51 H51           -1.7523    -5.3369    -2.6011 H       
  52 H52           -3.4371    -6.8372    -2.7727 H       
  53 H53           -4.0558    -7.4714    -4.3164 H       
  54 H54           -1.6319    -8.7922    -3.7191 H       
  55 H55           -5.0146    -8.3809    -2.5319 H       
  56 H56           -6.2611   -10.1445    -1.3078 H       
  57 H57           -5.1323   -12.3159    -0.8681 H       
  58 H58           -2.8272   -12.6586    -1.6516 H       
  59 H59            4.3161    -2.5906    -0.5413 H       
  60 H60            4.9263     1.6336    -0.0859 H       
  61 H61            0.2093     0.6153    -1.6339 H       
  62 H62            2.3471     2.5454     1.3840 H       
  63 H63            2.9746     3.0706    -0.1968 H       
  64 H64            1.3354     2.3883    -0.0720 H       
  65 H65            2.1952    -3.5141     0.0560 H       
  66 H66            0.8311    -2.4633     0.5066 H       
  67 H67            0.3144    -3.5642    -1.6143 H       
  68 H68            0.5875    -1.8314    -1.9165 H       
  69 H69            1.8565    -3.0148    -2.3132 H       
  70 H70            7.5018     0.6629     0.5115 H       
  71 H71            8.0049     0.3181    -1.1607 H       
  72 H72            6.6175     1.3894    -0.8517 H       
@<TRIPOS>BOND
   1    1    2 1
   2    1    4 2
   3    1    5 1
   4    2    3 1
   5    2   32 1
   6    2   39 1
   7    3    6 1
   8    3   40 1
   9    3   41 1
  10    5   42 1
  11    6    7 ar
  12    6   11 ar
  13    7    8 ar
  14    7   43 1
  15    8    9 ar
  16    8   44 1
  17    9   10 ar
  18    9   12 1
  19   10   11 ar
  20   10   45 1
  21   11   46 1
  22   12   13 1
  23   12   15 1
  24   13   14 1
  25   13   47 1
  26   13   48 1
  27   14   15 1
  28   14   16 1
  29   14   49 1
  30   15   50 1
  31   15   51 1
  32   16   17 1
  33   16   52 1
  34   16   53 1
  35   17   18 1
  36   17   54 1
  37   18   19 ar
  38   18   23 ar
  39   19   20 ar
  40   19   55 1
  41   20   21 ar
  42   20   56 1
  43   21   22 ar
  44   21   57 1
  45   22   23 ar
  46   22   58 1
  47   24   25 1
  48   24   31 2
  49   24   32 am
  50   25   26 ar
  51   25   30 ar
  52   26   27 ar
  53   26   34 1
  54   27   28 ar
  55   27   59 1
  56   28   29 ar
  57   28   36 1
  58   29   30 ar
  59   29   60 1
  60   30   33 1
  61   32   61 1
  62   33   62 1
  63   33   63 1
  64   33   64 1
  65   34   35 1
  66   34   65 1
  67   34   66 1
  68   35   67 1
  69   35   68 1
  70   35   69 1
  71   36   37 2
  72   36   38 1
  73   38   70 1
  74   38   71 1
  75   38   72 1

#	End of record

