#	Name: ASD03090498
#	Creating user name:	WinNT
#	Creation time:	15. 06. 2019 20:28

#	Modifying user name:	WinNT
#	Modification time:	15. 06. 2019 20:28

#	Program:	/corina/corina34_cracker 3.40 0067  02.08.2006

@<TRIPOS>MOLECULE
ASD03090498
  42   45    0    0    0
SMALL
NO_CHARGES


@<TRIPOS>ATOM
   1 C1            -0.0187     1.5021     0.0183 C.2     
   2 C2             0.0010    -0.0048     0.0162 C.3     
   3 O3             1.0237     2.1222     0.0139 O.2     
   4 N4            -1.1946     2.1607     0.0195 N.am    
   5 C5            -2.1810     4.2999    -0.5334 C.ar    
   6 C6            -1.2153     3.5547     0.1327 C.ar    
   7 C7            -0.2682     4.2125     0.9152 C.ar    
   8 C8            -0.3262     5.5917     0.9993 C.ar    
   9 C9            -1.3230     6.2728     0.3034 C.ar    
  10 N10           -2.2083     5.6122    -0.4317 N.ar    
  11 C11           -1.3955     7.7519     0.3858 C.ar    
  12 C12           -2.3884     8.4432    -0.3062 C.ar    
  13 C13           -2.4510     9.8195    -0.2259 C.ar    
  14 C14           -1.5307    10.5129     0.5394 C.ar    
  15 C15           -0.5431     9.8320     1.2282 C.ar    
  16 C16           -0.4744     8.4553     1.1599 C.ar    
  17 N17            5.3297    -1.8136     0.2602 N.pl3   
  18 C18            5.4963    -1.8694     1.6172 C.2     
  19 C19            4.3671    -1.4851     2.2330 C.2     
  20 C20            3.3982    -1.1563     1.1846 C.ar    
  21 C21            2.0759    -0.7076     1.1912 C.ar    
  22 C22            1.4282    -0.4885     0.0083 C.ar    
  23 C23            2.0741    -0.7084    -1.2007 C.ar    
  24 C24            3.3781    -1.1513    -1.2302 C.ar    
  25 C25            4.0570    -1.3810    -0.0378 C.ar    
  26 H26           -0.5036    -0.3759     0.9082 H       
  27 H27           -0.5126    -0.3736    -0.8717 H       
  28 H28           -2.0265     1.6680    -0.0582 H       
  29 H29           -2.9152     3.7968    -1.1451 H       
  30 H30            0.4931     3.6582     1.4439 H       
  31 H31            0.3917     6.1339     1.5969 H       
  32 H32           -3.1072     7.9029    -0.9043 H       
  33 H33           -3.2198    10.3562    -0.7619 H       
  34 H34           -1.5832    11.5900     0.5990 H       
  35 H35            0.1731    10.3785     1.8240 H       
  36 H36            0.2944     7.9244     1.7017 H       
  37 H37            6.0085    -2.0409    -0.3944 H       
  38 H38            6.4019    -2.1773     2.1185 H       
  39 H39            4.2038    -1.4289     3.2991 H       
  40 H40            1.5668    -0.5353     2.1279 H       
  41 H41            1.5488    -0.5307    -2.1275 H       
  42 H42            3.8718    -1.3198    -2.1759 H       
@<TRIPOS>BOND
   1    1    2 1
   2    1    3 2
   3    1    4 am
   4    2   22 1
   5    2   26 1
   6    2   27 1
   7    4    6 1
   8    4   28 1
   9    5    6 ar
  10    5   10 ar
  11    5   29 1
  12    6    7 ar
  13    7    8 ar
  14    7   30 1
  15    8    9 ar
  16    8   31 1
  17    9   10 ar
  18    9   11 1
  19   11   12 ar
  20   11   16 ar
  21   12   13 ar
  22   12   32 1
  23   13   14 ar
  24   13   33 1
  25   14   15 ar
  26   14   34 1
  27   15   16 ar
  28   15   35 1
  29   16   36 1
  30   17   18 1
  31   17   25 1
  32   17   37 1
  33   18   19 2
  34   18   38 1
  35   19   20 1
  36   19   39 1
  37   20   21 ar
  38   20   25 ar
  39   21   22 ar
  40   21   40 1
  41   22   23 ar
  42   23   24 ar
  43   23   41 1
  44   24   25 ar
  45   24   42 1

#	End of record

