#	Name: ASD01814288
#	Creating user name:	WinNT
#	Creation time:	15. 06. 2019 19:32

#	Modifying user name:	WinNT
#	Modification time:	15. 06. 2019 19:32

#	Program:	/corina/corina34_cracker 3.40 0067  02.08.2006

@<TRIPOS>MOLECULE
ASD01814288
  54   59    0    0    0
SMALL
NO_CHARGES


@<TRIPOS>ATOM
   1 C1             0.0180     1.3063    -0.0011 C.ar    
   2 C2             0.0507    -0.0844     0.0060 C.ar    
   3 C3             1.2355    -0.7584     0.0055 C.ar    
   4 C4             2.4432    -0.0439    -0.0027 C.ar    
   5 C5             2.4061     1.3718    -0.0104 C.ar    
   6 C6             1.1733     2.0322    -0.0091 C.ar    
   7 C7             3.6846    -0.7142    -0.0039 C.ar    
   8 C8             4.8517    -0.0273    -0.0123 C.ar    
   9 C9             4.8709     1.3764    -0.0201 C.ar    
  10 C10            3.6678     2.1065    -0.0189 C.ar    
  11 C11            6.1299     2.1308    -0.0293 C.2     
  12 N12            6.0479     3.4816    -0.0364 N.am    
  13 C13            4.8372     4.0985    -0.0351 C.2     
  14 N14            3.7095     3.4491    -0.0269 N.2     
  15 C15            3.7124    -2.2209     0.0048 C.3     
  16 C16            3.5920    -2.7337    -1.4071 C.ar    
  17 C17            4.7297    -2.9472    -2.1632 C.ar    
  18 C18            4.6221    -3.4173    -3.4577 C.ar    
  19 C19            3.3710    -3.6751    -3.9990 C.ar    
  20 C20            2.2309    -3.4601    -3.2383 C.ar    
  21 C21            2.3442    -2.9953    -1.9423 C.ar    
  22 O22            7.2074     1.5628    -0.0300 O.2     
  23 C23            7.2128     4.2450    -0.0448 C.2     
  24 N24            7.9306     4.6097    -1.1390 N.pl3   
  25 N25            9.0248     5.3697    -0.7100 N.2     
  26 C26            8.9877     5.4720     0.5915 C.2     
  27 C27            7.8535     4.7797     1.0599 C.2     
  28 C28            7.4308     4.6419     2.4708 C.2     
  29 C29            8.1924     4.1473     3.4663 C.2     
  30 C30            7.5774     4.1187     4.7030 C.2     
  31 C31            6.3265     4.5839     4.7233 C.2     
  32 S32            5.8592     5.1053     3.1101 S.3     
  33 O33            3.2624    -4.1372    -5.2724 O.3     
  34 C34            1.9429    -4.3807    -5.7639 C.3     
  35 H35           -0.9333     1.8175    -0.0047 H       
  36 H36           -0.8765    -0.6383     0.0123 H       
  37 H37            1.2448    -1.8384     0.0118 H       
  38 H38            1.1359     3.1116    -0.0152 H       
  39 H39            5.7856    -0.5698    -0.0126 H       
  40 H40            4.8095     5.1781    -0.0406 H       
  41 H41            4.6521    -2.5645     0.4373 H       
  42 H42            2.8798    -2.5962     0.5999 H       
  43 H43            5.7034    -2.7460    -1.7415 H       
  44 H44            5.5111    -3.5835    -4.0480 H       
  45 H45            1.2559    -3.6601    -3.6575 H       
  46 H46            1.4571    -2.8281    -1.3496 H       
  47 H47            7.7213     4.3824    -2.0585 H       
  48 H48            9.7026     6.0010     1.2042 H       
  49 H49            9.2031     3.8004     3.3098 H       
  50 H50            8.0721     3.7470     5.5882 H       
  51 H51            5.6971     4.6358     5.5994 H       
  52 H52            1.4544    -5.1280    -5.1386 H       
  53 H53            1.3690    -3.4543    -5.7385 H       
  54 H54            1.9987    -4.7455    -6.7895 H       
@<TRIPOS>BOND
   1    1    2 ar
   2    1    6 ar
   3    1   35 1
   4    2    3 ar
   5    2   36 1
   6    3    4 ar
   7    3   37 1
   8    4    5 ar
   9    4    7 ar
  10    5    6 ar
  11    5   10 ar
  12    6   38 1
  13    7    8 ar
  14    7   15 1
  15    8    9 ar
  16    8   39 1
  17    9   10 ar
  18    9   11 1
  19   10   14 1
  20   11   12 am
  21   11   22 2
  22   12   13 1
  23   12   23 1
  24   13   14 2
  25   13   40 1
  26   15   16 1
  27   15   41 1
  28   15   42 1
  29   16   17 ar
  30   16   21 ar
  31   17   18 ar
  32   17   43 1
  33   18   19 ar
  34   18   44 1
  35   19   20 ar
  36   19   33 1
  37   20   21 ar
  38   20   45 1
  39   21   46 1
  40   23   24 1
  41   23   27 2
  42   24   25 1
  43   24   47 1
  44   25   26 2
  45   26   27 1
  46   26   48 1
  47   27   28 1
  48   28   29 2
  49   28   32 1
  50   29   30 1
  51   29   49 1
  52   30   31 2
  53   30   50 1
  54   31   32 1
  55   31   51 1
  56   33   34 1
  57   34   52 1
  58   34   53 1
  59   34   54 1

#	End of record

