#	Name: ASD09890119
#	Creating user name:	WinNT
#	Creation time:	15. 06. 2019 21:24

#	Modifying user name:	WinNT
#	Modification time:	15. 06. 2019 21:24

#	Program:	/corina/corina34_cracker 3.40 0067  02.08.2006

@<TRIPOS>MOLECULE
ASD09890119
  40   42    0    0    0
SMALL
NO_CHARGES


@<TRIPOS>ATOM
   1 C1            -0.5550     1.9054    -1.7421 C.ar    
   2 C2            -0.6925     0.5642    -2.1057 C.ar    
   3 C3             1.5907     0.1485    -1.4292 C.ar    
   4 C4             1.7164     1.4720    -1.0730 C.ar    
   5 C5             0.6472     2.3533    -1.2279 C.ar    
   6 C6            -1.7890    -0.2297    -2.6656 C.2     
   7 C7            -1.3331    -1.4844    -2.8073 C.2     
   8 N8            -0.0344    -1.5595    -2.3840 N.pl3   
   9 C9             0.3884    -0.3216    -1.9479 C.ar    
  10 C10           -2.1335    -2.6392    -3.3520 C.3     
  11 N11            0.7921     3.6975    -0.8616 N.am    
  12 C12           -0.2078     4.3323    -0.2185 C.2     
  13 C13           -0.0142     5.7106     0.2668 C.ar    
  14 C14            0.2738     8.2596     1.2014 C.ar    
  15 N15           -0.8145     7.5733     1.4911 N.ar    
  16 C16           -0.9939     6.3351     1.0581 C.ar    
  17 C17            1.1510     6.4194    -0.0469 C.ar    
  18 C18            1.2845     7.7104     0.4330 C.ar    
  19 N19           -2.1511     5.6529     1.3854 N.pl3   
  20 C20           -2.0524    -2.6403    -4.8798 C.3     
  21 O21           -1.2700     3.7678    -0.0386 O.2     
  22 C22           -2.8650    -3.8128    -5.4329 C.3     
  23 H23           -1.3815     2.5894    -1.8660 H       
  24 H24            2.4254    -0.5256    -1.3050 H       
  25 H25            2.6521     1.8313    -0.6708 H       
  26 H26           -2.7771     0.1268    -2.9166 H       
  27 H27            0.5079    -2.3637    -2.3893 H       
  28 H28           -1.7298    -3.5752    -2.9660 H       
  29 H29           -3.1740    -2.5377    -3.0435 H       
  30 H30            1.6121     4.1715    -1.0709 H       
  31 H31            0.3801     9.2673     1.5751 H       
  32 H32            1.9271     5.9697    -0.6484 H       
  33 H33            2.1690     8.2867     0.2053 H       
  34 H34           -2.9555     6.1443     1.6144 H       
  35 H35           -2.1586     4.6829     1.3861 H       
  36 H36           -2.4561    -1.7043    -5.2658 H       
  37 H37           -1.0119    -2.7418    -5.1884 H       
  38 H38           -2.8072    -3.8136    -6.5213 H       
  39 H39           -2.4613    -4.7488    -5.0469 H       
  40 H40           -3.9055    -3.7113    -5.1244 H       
@<TRIPOS>BOND
   1    1    2 ar
   2    1    5 ar
   3    1   23 1
   4    2    9 ar
   5    2    6 1
   6    3    4 ar
   7    3    9 ar
   8    3   24 1
   9    4    5 ar
  10    4   25 1
  11    5   11 1
  12    6    7 2
  13    6   26 1
  14    7    8 1
  15    7   10 1
  16    8    9 1
  17    8   27 1
  18   10   20 1
  19   10   28 1
  20   10   29 1
  21   11   12 am
  22   11   30 1
  23   12   13 1
  24   12   21 2
  25   13   17 ar
  26   13   16 ar
  27   14   15 ar
  28   14   18 ar
  29   14   31 1
  30   15   16 ar
  31   16   19 1
  32   17   18 ar
  33   17   32 1
  34   18   33 1
  35   19   34 1
  36   19   35 1
  37   20   22 1
  38   20   36 1
  39   20   37 1
  40   22   38 1
  41   22   39 1
  42   22   40 1

#	End of record

