#	Name: ASD03430145
#	Creating user name:	WinNT
#	Creation time:	15. 06. 2019 20:40

#	Modifying user name:	WinNT
#	Modification time:	15. 06. 2019 20:40

#	Program:	/corina/corina34_cracker 3.40 0067  02.08.2006

@<TRIPOS>MOLECULE
ASD03430145
  57   62    0    0    0
SMALL
NO_CHARGES


@<TRIPOS>ATOM
   1 C1             0.0917     1.4601    -0.4669 C.ar    
   2 C2             0.1156     0.0852    -0.3893 C.ar    
   3 C3             1.3152    -0.5914    -0.4608 C.ar    
   4 C4             2.5105     0.1088    -0.6031 C.ar    
   5 C5             2.4768     1.4954    -0.6912 C.ar    
   6 C6             1.2695     2.1807    -0.6270 C.ar    
   7 O7             3.5781    -0.7388    -0.6203 O.3     
   8 C8             1.6733    -2.0525    -0.4300 C.3     
   9 C9             3.1243    -2.0698    -0.9315 C.3     
  10 C10            0.6563    -3.7049     0.8175 C.ar    
  11 C11            1.5498    -2.6440     0.9431 C.ar    
  12 C12            0.7728    -2.8793    -1.3018 C.2     
  13 N13            0.2218    -3.8168    -0.5051 N.am    
  14 O14            0.5790    -2.7324    -2.4901 O.2     
  15 C15            2.1119    -2.3425     2.1630 C.ar    
  16 C16            1.7920    -3.0955     3.2791 C.ar    
  17 C17            0.9057    -4.1507     3.1663 C.ar    
  18 C18            0.3394    -4.4568     1.9462 C.ar    
  19 C19           -1.0405     2.4663    -0.4022 C.3     
  20 C20           -0.2788     3.7899    -0.1549 C.3     
  21 O21            1.0200     3.5174    -0.7080 O.3     
  22 C22           -0.7225    -4.8348    -0.9723 C.3     
  23 C23            0.0517    -6.0307    -1.5305 C.3     
  24 O24            0.7837    -6.6584    -0.4760 O.3     
  25 C25           -0.9297    -7.0349    -2.1382 C.3     
  26 C26            1.9677    -7.3305    -0.9103 C.3     
  27 C27            2.5952    -8.0476     0.2572 C.ar    
  28 C28            2.3111    -9.3817     0.4820 C.ar    
  29 C29            2.8864   -10.0405     1.5520 C.ar    
  30 C30            3.7476    -9.3638     2.3991 C.ar    
  31 C31            4.0313    -8.0276     2.1730 C.ar    
  32 C32            3.4590    -7.3723     1.0992 C.ar    
  33 F33            4.3101   -10.0066     3.4457 F       
  34 H34           -0.8069    -0.4641    -0.2719 H       
  35 H35            3.3982     2.0460    -0.8100 H       
  36 H36            3.1604    -2.2497    -2.0059 H       
  37 H37            3.7109    -2.8144    -0.3934 H       
  38 H38            2.8036    -1.5175     2.2490 H       
  39 H39            2.2338    -2.8596     4.2360 H       
  40 H40            0.6559    -4.7383     4.0373 H       
  41 H41           -0.3518    -5.2827     1.8658 H       
  42 H42           -1.5852     2.5008    -1.3457 H       
  43 H43           -1.7129     2.2432     0.4262 H       
  44 H44           -0.7575     4.6153    -0.6818 H       
  45 H45           -0.2076     4.0010     0.9121 H       
  46 H46           -1.3455    -5.1619    -0.1398 H       
  47 H47           -1.3536    -4.4133    -1.7547 H       
  48 H48            0.7440    -5.6883    -2.2996 H       
  49 H49           -0.3782    -7.8868    -2.5358 H       
  50 H50           -1.6220    -7.3773    -1.3690 H       
  51 H51           -1.4881    -6.5560    -2.9425 H       
  52 H52            1.7118    -8.0528    -1.6854 H       
  53 H53            2.6727    -6.6021    -1.3109 H       
  54 H54            1.6391    -9.9093    -0.1787 H       
  55 H55            2.6641   -11.0827     1.7276 H       
  56 H56            4.7029    -7.4987     2.8330 H       
  57 H57            3.6802    -6.3300     0.9226 H       
@<TRIPOS>BOND
   1    1    2 ar
   2    1    6 ar
   3    1   19 1
   4    2    3 ar
   5    2   34 1
   6    3    4 ar
   7    3    8 1
   8    4    5 ar
   9    4    7 1
  10    5    6 ar
  11    5   35 1
  12    6   21 1
  13    7    9 1
  14    8    9 1
  15    8   11 1
  16    8   12 1
  17    9   36 1
  18    9   37 1
  19   10   11 ar
  20   10   13 1
  21   10   18 ar
  22   11   15 ar
  23   12   13 am
  24   12   14 2
  25   13   22 1
  26   15   16 ar
  27   15   38 1
  28   16   17 ar
  29   16   39 1
  30   17   18 ar
  31   17   40 1
  32   18   41 1
  33   19   20 1
  34   19   42 1
  35   19   43 1
  36   20   21 1
  37   20   44 1
  38   20   45 1
  39   22   23 1
  40   22   46 1
  41   22   47 1
  42   23   24 1
  43   23   25 1
  44   23   48 1
  45   24   26 1
  46   25   49 1
  47   25   50 1
  48   25   51 1
  49   26   27 1
  50   26   52 1
  51   26   53 1
  52   27   28 ar
  53   27   32 ar
  54   28   29 ar
  55   28   54 1
  56   29   30 ar
  57   29   55 1
  58   30   31 ar
  59   30   33 1
  60   31   32 ar
  61   31   56 1
  62   32   57 1

#	End of record

