#	Name: ASD03430662
#	Creating user name:	WinNT
#	Creation time:	15. 06. 2019 20:41

#	Modifying user name:	WinNT
#	Modification time:	15. 06. 2019 20:41

#	Program:	/corina/corina34_cracker 3.40 0067  02.08.2006

@<TRIPOS>MOLECULE
ASD03430662
  34   38    0    0    0
SMALL
NO_CHARGES


@<TRIPOS>ATOM
   1 C1            -0.0166     1.3732     0.0096 C.ar    
   2 C2             0.0021    -0.0041     0.0020 C.ar    
   3 C3             1.2046    -0.6789    -0.0036 C.ar    
   4 C4             2.4069     0.0234     0.0083 C.ar    
   5 C5             2.3791     1.4129     0.0065 C.ar    
   6 C6             1.1695     2.0974     0.0022 C.ar    
   7 O7             3.4728    -0.8265     0.0334 O.3     
   8 C8             1.5595    -2.1408    -0.0336 C.3     
   9 C9             3.0500    -2.1336    -0.3997 C.3     
  10 C10            0.4241    -3.8593     1.0052 C.ar    
  11 C11            1.3071    -2.8177     1.2808 C.ar    
  12 C12            0.7426    -2.9032    -1.0373 C.2     
  13 N13            0.1142    -3.8821    -0.3566 N.am    
  14 O14            0.6642    -2.6816    -2.2272 O.2     
  15 C15            1.7543    -2.6006     2.5646 C.ar    
  16 C16            1.3265    -3.4186     3.5958 C.ar    
  17 C17            0.4493    -4.4547     3.3336 C.ar    
  18 C18           -0.0012    -4.6772     2.0487 C.ar    
  19 C19           -1.1521     2.3774     0.0375 C.3     
  20 C20           -0.4176     3.6804     0.4324 C.3     
  21 O21            0.9256     3.4374    -0.0195 O.3     
  22 H22           -0.9262    -0.5561     0.0008 H       
  23 H23            3.3066     1.9663     0.0088 H       
  24 H24            3.1847    -2.2471    -1.4753 H       
  25 H25            3.5853    -2.9129     0.1427 H       
  26 H26           -0.4839    -4.5275    -0.7650 H       
  27 H27            2.4401    -1.7913     2.7672 H       
  28 H28            1.6773    -3.2482     4.6029 H       
  29 H29            0.1155    -5.0931     4.1383 H       
  30 H30           -0.6862    -5.4886     1.8515 H       
  31 H31           -1.6122     2.4724    -0.9461 H       
  32 H32           -1.8940     2.1056     0.7883 H       
  33 H33           -0.8491     4.5385    -0.0830 H       
  34 H34           -0.4414     3.8251     1.5125 H       
@<TRIPOS>BOND
   1    1    2 ar
   2    1    6 ar
   3    1   19 1
   4    2    3 ar
   5    2   22 1
   6    3    4 ar
   7    3    8 1
   8    4    5 ar
   9    4    7 1
  10    5    6 ar
  11    5   23 1
  12    6   21 1
  13    7    9 1
  14    8    9 1
  15    8   11 1
  16    8   12 1
  17    9   24 1
  18    9   25 1
  19   10   11 ar
  20   10   13 1
  21   10   18 ar
  22   11   15 ar
  23   12   13 am
  24   12   14 2
  25   13   26 1
  26   15   16 ar
  27   15   27 1
  28   16   17 ar
  29   16   28 1
  30   17   18 ar
  31   17   29 1
  32   18   30 1
  33   19   20 1
  34   19   31 1
  35   19   32 1
  36   20   21 1
  37   20   33 1
  38   20   34 1

#	End of record

