#	Name: ASD01230066
#	Creating user name:	WinNT
#	Creation time:	15. 06. 2019 19:11

#	Modifying user name:	WinNT
#	Modification time:	15. 06. 2019 19:11

#	Program:	/corina/corina34_cracker 3.40 0067  02.08.2006

@<TRIPOS>MOLECULE
ASD01230066
  53   56    0    0    0
SMALL
NO_CHARGES


@<TRIPOS>ATOM
   1 C1            -0.0168     1.3841     0.0097 C.ar    
   2 C2             0.0021    -0.0041     0.0020 C.ar    
   3 C3            -1.1829    -0.7154     0.0095 C.ar    
   4 C4            -2.3922    -0.0495     0.0246 C.ar    
   5 C5            -2.4200     1.3439     0.0328 C.ar    
   6 C6            -1.2252     2.0604     0.0306 C.ar    
   7 O7             1.1509     2.0795     0.0022 O.3     
   8 C8             1.0569     3.5054     0.0108 C.3     
   9 C9            -3.7178     2.0619     0.0486 C.ar    
  10 N10           -3.7569     3.3884    -0.0434 N.ar    
  11 C11           -4.9147     4.0317    -0.0299 C.ar    
  12 N12           -6.0689     3.3866     0.0745 N.ar    
  13 C13           -6.1054     2.0679     0.1698 C.ar    
  14 C14           -4.9188     1.3546     0.1545 C.ar    
  15 C15           -4.9206     5.5114    -0.1339 C.ar    
  16 C16           -6.1261     6.2062    -0.1217 C.ar    
  17 C17           -3.7177     6.2092    -0.2384 C.ar    
  18 C18           -3.7219     7.5866    -0.3349 C.ar    
  19 C19           -4.9158     8.2810    -0.3285 C.ar    
  20 C20           -6.1241     7.5944    -0.2198 C.ar    
  21 C21           -7.4059     8.3419    -0.2136 C.ar    
  22 C22           -7.4230     9.7352    -0.3158 C.ar    
  23 C23           -8.6264     7.6698    -0.1112 C.ar    
  24 N24           -9.7465     8.3706    -0.1095 N.ar    
  25 C25           -9.7218     9.6924    -0.2033 C.ar    
  26 N26           -8.5845    10.3649    -0.3071 N.ar    
  27 N27          -10.9169    10.3893    -0.1980 N.pl3   
  28 C28           -7.4247     1.3492     0.2879 C.3     
  29 F29           -8.4704     2.2698     0.1606 F       
  30 F30           -7.5241     0.3877    -0.7235 F       
  31 F31           -7.5043     0.7227     1.5363 F       
  32 C32            1.3185    -0.7375    -0.0150 C.3     
  33 F33            1.0839    -2.1166    -0.0201 F       
  34 F34            2.0354    -0.3822    -1.1626 F       
  35 F35            2.0581    -0.3944     1.1219 F       
  36 C36            2.4627     4.1092     0.0006 C.3     
  37 F37            3.1405     3.6934    -1.1504 F       
  38 F38            2.3707     5.5051     0.0090 F       
  39 F39            3.1623     3.6812     1.1340 F       
  40 H40           -1.1628    -1.7952     0.0032 H       
  41 H41           -3.3164    -0.6082     0.0297 H       
  42 H42           -1.2413     3.1403     0.0373 H       
  43 H43            0.5119     3.8389    -0.8722 H       
  44 H44            0.5289     3.8293     0.9076 H       
  45 H45           -4.9207     0.2772     0.2308 H       
  46 H46           -7.0599     5.6702    -0.0369 H       
  47 H47           -2.7812     5.6713    -0.2435 H       
  48 H48           -2.7879     8.1230    -0.4152 H       
  49 H49           -4.9130     9.3584    -0.4035 H       
  50 H50           -6.5000    10.2896    -0.4004 H       
  51 H51           -8.6540     6.5928    -0.0348 H       
  52 H52          -11.7574     9.9103    -0.1263 H       
  53 H53          -10.9144    11.3569    -0.2659 H       
@<TRIPOS>BOND
   1    1    2 ar
   2    1    7 1
   3    1    6 ar
   4    2   32 1
   5    2    3 ar
   6    3    4 ar
   7    3   40 1
   8    4    5 ar
   9    4   41 1
  10    5    6 ar
  11    5    9 1
  12    6   42 1
  13    7    8 1
  14    8   36 1
  15    8   43 1
  16    8   44 1
  17    9   10 ar
  18    9   14 ar
  19   10   11 ar
  20   11   12 ar
  21   11   15 1
  22   12   13 ar
  23   13   28 1
  24   13   14 ar
  25   14   45 1
  26   15   16 ar
  27   15   17 ar
  28   16   20 ar
  29   16   46 1
  30   17   18 ar
  31   17   47 1
  32   18   19 ar
  33   18   48 1
  34   19   20 ar
  35   19   49 1
  36   20   21 1
  37   21   22 ar
  38   21   23 ar
  39   22   26 ar
  40   22   50 1
  41   23   24 ar
  42   23   51 1
  43   24   25 ar
  44   25   26 ar
  45   25   27 1
  46   27   52 1
  47   27   53 1
  48   28   29 1
  49   28   30 1
  50   28   31 1
  51   32   33 1
  52   32   34 1
  53   32   35 1
  54   36   37 1
  55   36   38 1
  56   36   39 1

#	End of record

