#	Name: ASD01910695
#	Creating user name:	WinNT
#	Creation time:	15. 06. 2019 19:56

#	Modifying user name:	WinNT
#	Modification time:	15. 06. 2019 19:56

#	Program:	/corina/corina34_cracker 3.40 0067  02.08.2006

@<TRIPOS>MOLECULE
ASD01910695
  57   60    0    0    0
SMALL
NO_CHARGES


@<TRIPOS>ATOM
   1 C1            12.4807    -1.9061     4.2723 C.ar    
   2 C2            13.1007    -2.0699     3.0408 C.ar    
   3 C3            12.3914    -1.7503     1.8969 C.ar    
   4 C4            11.0886    -1.2784     2.0184 C.ar    
   5 N5            10.5322    -1.1355     3.2116 N.ar    
   6 C6            11.1846    -1.4328     4.3192 C.ar    
   7 N7            10.3644    -0.9535     0.8773 N.3     
   8 C8             9.0189    -0.4776     1.2254 C.3     
   9 C9             8.3208     0.0387    -0.0372 C.3     
  10 N10            8.3616    -1.0183    -1.0591 N.am    
  11 C11            9.6585    -1.6413    -1.3645 C.3     
  12 C12           10.3039    -2.0915    -0.0496 C.3     
  13 C13            7.2404    -1.4055    -1.6989 C.2     
  14 C14            7.3210    -2.3785    -2.8064 C.ar    
  15 O15            6.1625    -0.9536    -1.3641 O.2     
  16 C16            6.3463    -3.3727    -2.9362 C.ar    
  17 C17            6.4166    -4.2837    -3.9681 C.ar    
  18 C18            7.4549    -4.2219    -4.8857 C.ar    
  19 C19            8.4405    -3.2279    -4.7655 C.ar    
  20 C20            8.3661    -2.3027    -3.7264 C.ar    
  21 C21            9.5138    -3.1620    -5.7111 C.1     
  22 C22           10.3938    -3.1079    -6.4864 C.1     
  23 C23           11.4672    -3.0419    -7.4320 C.2     
  24 O24            7.5190    -5.1214    -5.8988 O.3     
  25 C25            6.4839    -6.1047    -5.9598 C.3     
  26 C26           12.4953    -1.9618    -7.2609 C.3     
  27 C27           13.7512    -2.2976    -8.0679 C.3     
  28 C28           13.3292    -2.6618    -9.4966 C.3     
  29 C29           12.5648    -3.9865    -9.4547 C.3     
  30 C30           11.4986    -3.9363    -8.3995 C.2     
  31 H31           13.0055    -2.1507     5.1840 H       
  32 H32           14.1140    -2.4382     2.9774 H       
  33 H33           12.8432    -1.8653     0.9227 H       
  34 H34           10.6987    -1.3035     5.2750 H       
  35 H35            8.4414    -1.2986     1.6504 H       
  36 H36            9.0957     0.3292     1.9543 H       
  37 H37            7.2844     0.2861     0.1926 H       
  38 H38            8.8385     0.9244    -0.4057 H       
  39 H39            9.5064    -2.5047    -2.0122 H       
  40 H40           10.3047    -0.9171    -1.8605 H       
  41 H41           11.3126    -2.4551    -0.2454 H       
  42 H42            9.7085    -2.8900     0.3931 H       
  43 H43            5.5354    -3.4271    -2.2249 H       
  44 H44            5.6603    -5.0490    -4.0624 H       
  45 H45            9.1201    -1.5358    -3.6283 H       
  46 H46            6.4888    -6.6948    -5.0434 H       
  47 H47            5.5187    -5.6099    -6.0681 H       
  48 H48            6.6545    -6.7593    -6.8145 H       
  49 H49           12.0849    -1.0139    -7.6089 H       
  50 H50           12.7561    -1.8749    -6.2061 H       
  51 H51           14.4138    -1.4324    -8.0910 H       
  52 H52           14.2648    -3.1435    -7.6109 H       
  53 H53           12.6849    -1.8798    -9.8986 H       
  54 H54           14.2142    -2.7693   -10.1236 H       
  55 H55           12.1065    -4.1701   -10.4265 H       
  56 H56           13.2574    -4.7963    -9.2253 H       
  57 H57           10.7076    -4.6706    -8.4396 H       
@<TRIPOS>BOND
   1    1    2 ar
   2    1    6 ar
   3    1   31 1
   4    2    3 ar
   5    2   32 1
   6    3    4 ar
   7    3   33 1
   8    4    5 ar
   9    4    7 1
  10    5    6 ar
  11    6   34 1
  12    7    8 1
  13    7   12 1
  14    8    9 1
  15    8   35 1
  16    8   36 1
  17    9   10 1
  18    9   37 1
  19    9   38 1
  20   10   11 1
  21   10   13 am
  22   11   12 1
  23   11   39 1
  24   11   40 1
  25   12   41 1
  26   12   42 1
  27   13   14 1
  28   13   15 2
  29   14   16 ar
  30   14   20 ar
  31   16   17 ar
  32   16   43 1
  33   17   18 ar
  34   17   44 1
  35   18   19 ar
  36   18   24 1
  37   19   20 ar
  38   19   21 1
  39   20   45 1
  40   21   22 3
  41   22   23 1
  42   23   26 1
  43   23   30 2
  44   24   25 1
  45   25   46 1
  46   25   47 1
  47   25   48 1
  48   26   27 1
  49   26   49 1
  50   26   50 1
  51   27   28 1
  52   27   51 1
  53   27   52 1
  54   28   29 1
  55   28   53 1
  56   28   54 1
  57   29   30 1
  58   29   55 1
  59   29   56 1
  60   30   57 1

#	End of record

