#	Name: ASD01913670
#	Creating user name:	WinNT
#	Creation time:	15. 06. 2019 20:02

#	Modifying user name:	WinNT
#	Modification time:	15. 06. 2019 20:02

#	Program:	/corina/corina34_cracker 3.40 0067  02.08.2006

@<TRIPOS>MOLECULE
ASD01913670
  47   48    0    0    0
SMALL
NO_CHARGES


@<TRIPOS>ATOM
   1 C1            -0.0167     1.3800     0.0096 C.ar    
   2 C2             0.0021    -0.0041     0.0020 C.ar    
   3 C3            -1.1877    -0.7114     0.0095 C.ar    
   4 C4            -2.3953    -0.0338     0.0247 C.ar    
   5 C5            -2.4128     1.3481     0.0318 C.ar    
   6 C6            -1.2254     2.0554     0.0306 C.ar    
   7 C7            -3.7276     2.0844     0.0477 C.3     
   8 O8            -4.1307     2.3103     1.4000 O.3     
   9 C9            -5.3010     2.9657     1.5917 C.ar    
  10 N10           -6.0070     3.3608     0.5435 N.ar    
  11 C11           -7.1498     4.0007     0.6780 C.ar    
  12 C12           -7.6594     4.2868     1.9449 C.ar    
  13 C13           -6.9359     3.8819     3.0765 C.ar    
  14 C14           -5.7466     3.2088     2.8876 C.ar    
  15 C15           -8.9405     5.0053     2.0924 C.2     
  16 N16           -9.6271     5.3901     0.9983 N.am    
  17 O17           -9.3762     5.2499     3.2008 O.2     
  18 F18            1.1438     2.0716     0.0023 F       
  19 C19          -10.8985     6.1031     1.1446 C.3     
  20 C20          -11.4669     6.4216    -0.2397 C.3     
  21 C21          -12.7947     7.1662    -0.0869 C.3     
  22 C22          -12.5633     8.4689     0.6814 C.3     
  23 C23          -13.3631     7.4847    -1.4712 C.3     
  24 C24          -13.7854     6.2898     0.6820 C.3     
  25 F25           -1.1709    -2.0622     0.0017 F       
  26 H26            0.9443    -0.5317    -0.0101 H       
  27 H27           -3.3237    -0.5855     0.0305 H       
  28 H28           -1.2402     3.1353     0.0361 H       
  29 H29           -3.6146     3.0410    -0.4623 H       
  30 H30           -4.4842     1.4879    -0.4621 H       
  31 H31           -7.6977     4.3074    -0.2007 H       
  32 H32           -7.3031     4.0881     4.0711 H       
  33 H33           -5.1635     2.8819     3.7358 H       
  34 H34           -9.2795     5.1949     0.1140 H       
  35 H35          -11.6043     5.4787     1.6924 H       
  36 H36          -10.7336     7.0312     1.6920 H       
  37 H37          -10.7611     7.0460    -0.7874 H       
  38 H38          -11.6317     5.4935    -0.7871 H       
  39 H39          -11.8575     9.0934     0.1337 H       
  40 H40          -13.5092     8.9995     0.7903 H       
  41 H41          -12.1583     8.2421     1.6677 H       
  42 H42          -13.5279     6.5566    -2.0186 H       
  43 H43          -14.3090     8.0152    -1.3623 H       
  44 H44          -12.6573     8.1091    -2.0190 H       
  45 H45          -13.3805     6.0629     1.6682 H       
  46 H46          -14.7313     6.8203     0.7909 H       
  47 H47          -13.9502     5.3617     0.1346 H       
@<TRIPOS>BOND
   1    1    2 ar
   2    1   18 1
   3    1    6 ar
   4    2    3 ar
   5    2   26 1
   6    3    4 ar
   7    3   25 1
   8    4    5 ar
   9    4   27 1
  10    5    6 ar
  11    5    7 1
  12    6   28 1
  13    7    8 1
  14    7   29 1
  15    7   30 1
  16    8    9 1
  17    9   10 ar
  18    9   14 ar
  19   10   11 ar
  20   11   12 ar
  21   11   31 1
  22   12   13 ar
  23   12   15 1
  24   13   14 ar
  25   13   32 1
  26   14   33 1
  27   15   16 am
  28   15   17 2
  29   16   19 1
  30   16   34 1
  31   19   20 1
  32   19   35 1
  33   19   36 1
  34   20   21 1
  35   20   37 1
  36   20   38 1
  37   21   22 1
  38   21   23 1
  39   21   24 1
  40   22   39 1
  41   22   40 1
  42   22   41 1
  43   23   42 1
  44   23   43 1
  45   23   44 1
  46   24   45 1
  47   24   46 1
  48   24   47 1

#	End of record

