#	Name: ASD06140008
#	Creating user name:	WinNT
#	Creation time:	15. 06. 2019 21:05

#	Modifying user name:	WinNT
#	Modification time:	15. 06. 2019 21:05

#	Program:	/corina/corina34_cracker 3.40 0067  02.08.2006

@<TRIPOS>MOLECULE
ASD06140008
  38   40    0    0    0
SMALL
NO_CHARGES


@<TRIPOS>ATOM
   1 C1            -0.0161     1.3334     0.0094 C.2     
   2 C2             0.0021    -0.0041     0.0020 C.2     
   3 C3            -1.2352    -0.6048     0.0114 C.2     
   4 C4            -2.2703     0.2912     0.0268 C.2     
   5 S5            -1.6166     1.9234     0.0352 S.3     
   6 C6             1.2143     2.2036     0.0023 C.3     
   7 C7            -3.6477    -0.0433     0.0390 C.2     
   8 N8            -4.5508     0.9035     0.0533 N.2     
   9 C9            -5.8775     0.5813     0.0651 C.ar    
  10 C10           -6.7507     1.2443     0.9345 C.ar    
  11 C11           -8.0776     0.9220     0.9463 C.ar    
  12 C12           -8.5640    -0.0712     0.0891 C.ar    
  13 C13           -7.6908    -0.7338    -0.7806 C.ar    
  14 C14           -6.3649    -0.4078    -0.7962 C.ar    
  15 N15           -9.8905    -0.3940     0.1015 N.2     
  16 C16          -10.5384    -0.5424    -1.0257 C.2     
  17 C17          -11.9156    -0.8776    -1.0127 C.2     
  18 C18          -12.6995    -1.0593    -2.1204 C.2     
  19 S19          -12.8897    -1.1343     0.4284 S.3     
  20 C20          -14.2772    -1.4590    -0.5098 C.2     
  21 C21          -14.0023    -1.3787    -1.8164 C.2     
  22 C22          -15.6317    -1.7962     0.0583 C.3     
  23 H23            0.9213    -0.5709    -0.0107 H       
  24 H24           -1.3761    -1.6756     0.0068 H       
  25 H25            1.5011     2.4189    -1.0270 H       
  26 H26            1.0019     3.1373     0.5232 H       
  27 H27            2.0297     1.6841     0.5056 H       
  28 H28           -3.9517    -1.0796     0.0366 H       
  29 H29           -6.3752     2.0106     1.5964 H       
  30 H30           -8.7516     1.4334     1.6176 H       
  31 H31           -8.0663    -1.5004    -1.4423 H       
  32 H32           -5.6910    -0.9190    -1.4678 H       
  33 H33          -10.0238    -0.4095    -1.9659 H       
  34 H34          -12.3320    -0.9610    -3.1312 H       
  35 H35          -14.7494    -1.5504    -2.5772 H       
  36 H36          -15.5790    -1.7978     1.1470 H       
  37 H37          -16.3584    -1.0527    -0.2692 H       
  38 H38          -15.9374    -2.7820    -0.2921 H       
@<TRIPOS>BOND
   1    1    2 2
   2    1    6 1
   3    1    5 1
   4    2    3 1
   5    2   23 1
   6    3    4 2
   7    3   24 1
   8    4    5 1
   9    4    7 1
  10    6   25 1
  11    6   26 1
  12    6   27 1
  13    7    8 2
  14    7   28 1
  15    8    9 1
  16    9   10 ar
  17    9   14 ar
  18   10   11 ar
  19   10   29 1
  20   11   12 ar
  21   11   30 1
  22   12   13 ar
  23   12   15 1
  24   13   14 ar
  25   13   31 1
  26   14   32 1
  27   15   16 2
  28   16   17 1
  29   16   33 1
  30   17   18 2
  31   17   19 1
  32   18   21 1
  33   18   34 1
  34   19   20 1
  35   20   21 2
  36   20   22 1
  37   21   35 1
  38   22   36 1
  39   22   37 1
  40   22   38 1

#	End of record

