#	Name: ASD05313176
#	Creating user name:	WinNT
#	Creation time:	15. 06. 2019 20:58

#	Modifying user name:	WinNT
#	Modification time:	15. 06. 2019 20:58

#	Program:	/corina/corina34_cracker 3.40 0067  02.08.2006

@<TRIPOS>MOLECULE
ASD05313176
  41   44    0    0    0
SMALL
NO_CHARGES


@<TRIPOS>ATOM
   1 C1            -0.0724     0.8194     1.0219 C.2     
   2 C2             0.1133    -0.6173     0.5954 C.3     
   3 N3             0.9303     1.7323     1.0481 N.pl3   
   4 N4             1.4567    -0.7176    -0.0058 N.am    
   5 C5             2.5710    -0.0359     0.6703 C.3     
   6 C6             2.3171     1.4762     0.6628 C.3     
   7 N7            -0.9040     2.6431     1.7044 N.2     
   8 N8            -1.1573     1.4110     1.4237 N.2     
   9 C9             0.3721     2.8925     1.4915 C.2     
  10 C10            1.0653     4.1829     1.6973 C.ar    
  11 C11            0.3492     5.2871     2.1597 C.ar    
  12 C12            1.0120     6.4872     2.3477 C.ar    
  13 C13            2.3701     6.5453     2.0673 C.ar    
  14 C14            3.0182     5.4118     1.6116 C.ar    
  15 N15            2.3655     4.2798     1.4457 N.ar    
  16 C16            0.2755     7.7041     2.8453 C.3     
  17 C17            1.6574    -1.4143    -1.1419 C.2     
  18 O18            2.7494    -1.4044    -1.6761 O.2     
  19 C19            0.5506    -2.1899    -1.7379 C.ar    
  20 C20            0.3194    -2.1378    -3.1151 C.ar    
  21 C21           -0.7182    -2.8669    -3.6659 C.ar    
  22 C22           -1.5270    -3.6470    -2.8536 C.ar    
  23 C23           -1.3009    -3.7005    -1.4883 C.ar    
  24 C24           -0.2653    -2.9827    -0.9282 C.ar    
  25 F25           -0.9445    -2.8188    -4.9969 F       
  26 Cl26          -2.8287    -4.5598    -3.5507 Cl      
  27 Cl27           1.3318    -1.1600    -4.1313 Cl      
  28 H28            0.0436    -1.2746     1.4620 H       
  29 H29           -0.6444    -0.8879    -0.1400 H       
  30 H30            2.6424    -0.3878     1.6995 H       
  31 H31            3.5018    -0.2514     0.1456 H       
  32 H32            2.4958     1.8702    -0.3377 H       
  33 H33            2.9876     1.9619     1.3717 H       
  34 H34           -0.7075     5.2066     2.3678 H       
  35 H35            2.9157     7.4674     2.2034 H       
  36 H36            4.0749     5.4543     1.3923 H       
  37 H37            0.3092     7.7291     3.9345 H       
  38 H38            0.7469     8.6024     2.4466 H       
  39 H39           -0.7623     7.6611     2.5148 H       
  40 H40           -1.9349    -4.3095    -0.8610 H       
  41 H41           -0.0885    -3.0297     0.1361 H       
@<TRIPOS>BOND
   1    1    2 1
   2    1    3 1
   3    1    8 2
   4    2    4 1
   5    2   28 1
   6    2   29 1
   7    3    6 1
   8    3    9 1
   9    4    5 1
  10    4   17 am
  11    5    6 1
  12    5   30 1
  13    5   31 1
  14    6   32 1
  15    6   33 1
  16    7    8 1
  17    7    9 2
  18    9   10 1
  19   10   11 ar
  20   10   15 ar
  21   11   12 ar
  22   11   34 1
  23   12   13 ar
  24   12   16 1
  25   13   14 ar
  26   13   35 1
  27   14   15 ar
  28   14   36 1
  29   16   37 1
  30   16   38 1
  31   16   39 1
  32   17   18 2
  33   17   19 1
  34   19   20 ar
  35   19   24 ar
  36   20   21 ar
  37   20   27 1
  38   21   22 ar
  39   21   25 1
  40   22   23 ar
  41   22   26 1
  42   23   24 ar
  43   23   40 1
  44   24   41 1

#	End of record

