#	Name: ASD08178054
#	Creating user name:	WinNT
#	Creation time:	15. 06. 2019 21:18

#	Modifying user name:	WinNT
#	Modification time:	15. 06. 2019 21:18

#	Program:	/corina/corina34_cracker 3.40 0067  02.08.2006

@<TRIPOS>MOLECULE
ASD08178054
  63   68    0    0    0
SMALL
NO_CHARGES


@<TRIPOS>ATOM
   1 N1            -0.0150     1.2583     0.0090 N.2     
   2 N2             0.0021    -0.0041     0.0020 N.2     
   3 C3             1.1271     1.8769     0.0014 C.2     
   4 S4             2.3826     0.7116    -0.0169 S.3     
   5 C5             1.1681    -0.5677    -0.0121 C.2     
   6 N6             1.3017     3.2566     0.0067 N.am    
   7 C7             0.2284     4.0717     0.0214 C.2     
   8 O8            -0.8897     3.6019     0.0299 O.2     
   9 C9             1.4387    -2.0502    -0.0227 C.3     
  10 C10            1.5165    -2.5442    -1.4687 C.3     
  11 S11            1.8422    -4.3286    -1.4814 S.3     
  12 C12            1.8986    -4.7206    -3.2516 C.3     
  13 C13            2.1699    -6.2152    -3.4347 C.3     
  14 C14            2.2167    -6.5408    -4.9053 C.2     
  15 N15            3.2694    -6.5184    -5.6596 N.2     
  16 S16            0.8491    -7.0282    -5.9071 S.3     
  17 C17            1.9000    -7.1354    -7.2557 C.2     
  18 N18            3.1017    -6.8250    -6.8728 N.2     
  19 N19            1.5289    -7.4992    -8.5457 N.am    
  20 C20            2.4537    -7.5464    -9.5250 C.2     
  21 O21            3.6096    -7.2716    -9.2812 O.2     
  22 C22            2.0516    -7.9407   -10.9228 C.3     
  23 O23            3.1705    -7.8458   -11.8205 O.3     
  24 C24            3.0761    -8.8249   -12.7616 C.ar    
  25 C25            2.2169    -9.8361   -12.3515 C.ar    
  26 C26            1.6886    -9.4433   -10.9855 C.3     
  27 C27            3.6955    -8.9315   -14.0046 C.ar    
  28 C28            3.4598   -10.0289   -14.8063 C.ar    
  29 C29            2.6070   -11.0324   -14.3844 C.ar    
  30 C30            1.9853   -10.9324   -13.1525 C.ar    
  31 C31            0.4176     5.5667     0.0272 C.3     
  32 C32            1.0801     6.0404    -1.2882 C.3     
  33 C33            0.3871     7.3679    -1.5273 C.ar    
  34 C34           -0.7369     7.3925    -0.7119 C.ar    
  35 O35           -0.8520     6.2409     0.0048 O.3     
  36 C36            0.6858     8.4326    -2.3485 C.ar    
  37 C37           -0.1349     9.5462    -2.3627 C.ar    
  38 C38           -1.2537     9.5850    -1.5509 C.ar    
  39 C39           -1.5567     8.5185    -0.7303 C.ar    
  40 H40            2.1959     3.6323    -0.0001 H       
  41 H41            2.3843    -2.2506     0.4811 H       
  42 H42            0.6334    -2.5702     0.4961 H       
  43 H43            0.5709    -2.3438    -1.9724 H       
  44 H44            2.3218    -2.0242    -1.9874 H       
  45 H45            0.9434    -4.4658    -3.7108 H       
  46 H46            2.6943    -4.1461    -3.7258 H       
  47 H47            3.1250    -6.4700    -2.9755 H       
  48 H48            1.3741    -6.7896    -2.9605 H       
  49 H49            0.6045    -7.7190    -8.7407 H       
  50 H50            1.2226    -7.3254   -11.2726 H       
  51 H51            2.1953    -9.9997   -10.1970 H       
  52 H52            0.6094    -9.5860   -10.9293 H       
  53 H53            4.3625    -8.1520   -14.3421 H       
  54 H54            3.9436   -10.1046   -15.7690 H       
  55 H55            2.4268   -11.8909   -15.0143 H       
  56 H56            1.3182   -11.7136   -12.8191 H       
  57 H57            1.0073     5.8765     0.8899 H       
  58 H58            2.1531     6.1794    -1.1560 H       
  59 H59            0.8763     5.3427    -2.1004 H       
  60 H60            1.5607     8.3982    -2.9807 H       
  61 H61            0.0975    10.3825    -3.0054 H       
  62 H62           -1.8938    10.4548    -1.5596 H       
  63 H63           -2.4326     8.5567    -0.0997 H       
@<TRIPOS>BOND
   1    1    2 1
   2    1    3 2
   3    2    5 2
   4    3    4 1
   5    3    6 1
   6    4    5 1
   7    5    9 1
   8    6    7 am
   9    6   40 1
  10    7    8 2
  11    7   31 1
  12    9   10 1
  13    9   41 1
  14    9   42 1
  15   10   11 1
  16   10   43 1
  17   10   44 1
  18   11   12 1
  19   12   13 1
  20   12   45 1
  21   12   46 1
  22   13   14 1
  23   13   47 1
  24   13   48 1
  25   14   15 2
  26   14   16 1
  27   15   18 1
  28   16   17 1
  29   17   18 2
  30   17   19 1
  31   19   20 am
  32   19   49 1
  33   20   21 2
  34   20   22 1
  35   22   23 1
  36   22   26 1
  37   22   50 1
  38   23   24 1
  39   24   25 ar
  40   24   27 ar
  41   25   26 1
  42   25   30 ar
  43   26   51 1
  44   26   52 1
  45   27   28 ar
  46   27   53 1
  47   28   29 ar
  48   28   54 1
  49   29   30 ar
  50   29   55 1
  51   30   56 1
  52   31   32 1
  53   31   35 1
  54   31   57 1
  55   32   33 1
  56   32   58 1
  57   32   59 1
  58   33   34 ar
  59   33   36 ar
  60   34   35 1
  61   34   39 ar
  62   36   37 ar
  63   36   60 1
  64   37   38 ar
  65   37   61 1
  66   38   39 ar
  67   38   62 1
  68   39   63 1

#	End of record

