#	Name: ASD02560091
#	Creating user name:	WinNT
#	Creation time:	15. 06. 2019 20:24

#	Modifying user name:	WinNT
#	Modification time:	15. 06. 2019 20:24

#	Program:	/corina/corina34_cracker 3.40 0067  02.08.2006

@<TRIPOS>MOLECULE
ASD02560091
  48   50    0    0    0
SMALL
NO_CHARGES


@<TRIPOS>ATOM
   1 C1             2.2988    -0.3535    -0.2240 C.3     
   2 C2             0.8713    -0.1560    -0.7333 C.3     
   3 C3             0.4143     1.2578    -0.4884 C.ar    
   4 C4             1.0235     2.0611     0.4615 C.ar    
   5 N5             2.0972     1.5813     1.2269 N.am    
   6 C6             2.3804     0.1395     1.2267 C.3     
   7 C7            -0.6404     1.7595    -1.2335 C.ar    
   8 C8            -1.0855     3.0522    -1.0305 C.ar    
   9 C9            -0.4792     3.8545    -0.0796 C.ar    
  10 C10            0.5744     3.3620     0.6656 C.ar    
  11 C11            2.8562     2.4287     1.9496 C.2     
  12 N12            3.3514     2.0403     3.1414 N.am    
  13 O13            3.0942     3.5434     1.5264 O.2     
  14 C14            4.2655     2.9184     3.8761 C.3     
  15 C15            4.5731     2.3113     5.2207 C.2     
  16 N16            5.3166     2.9938     6.1140 N.am    
  17 O17            4.1517     1.2086     5.4989 O.2     
  18 C18            5.6998     2.3860     7.3153 C.ar    
  19 C19            5.7885     1.0032     7.3980 C.ar    
  20 C20            6.1675     0.4063     8.5849 C.ar    
  21 C21            6.4579     1.1842     9.6903 C.ar    
  22 C22            6.3708     2.5623     9.6122 C.ar    
  23 C23            5.9979     3.1661     8.4264 C.ar    
  24 Cl24           5.8891     4.8959     8.3286 Cl      
  25 Cl25           1.3363     4.3655     1.8597 Cl      
  26 Cl26          -2.4080     3.6705    -1.9698 Cl      
  27 S27            6.9397     0.4182    11.2022 S.o2    
  28 O28            6.5608     1.3517    12.2043 O.2     
  29 O29            6.3504    -0.8736    11.1439 O.2     
  30 C30            8.7465     0.2991    11.0936 C.3     
  31 H31            2.5582    -1.4113    -0.2653 H       
  32 H32            2.9898     0.2183    -0.8434 H       
  33 H33            0.8389    -0.3643    -1.8028 H       
  34 H34            0.2053    -0.8445    -0.2131 H       
  35 H35            1.6421    -0.3819     1.8360 H       
  36 H36            3.3800    -0.0405     1.6221 H       
  37 H37           -1.1174     1.1374    -1.9764 H       
  38 H38           -0.8287     4.8640     0.0790 H       
  39 H39            3.1026     1.1795     3.5128 H       
  40 H40            5.1898     3.0358     3.3104 H       
  41 H41            3.7988     3.8935     4.0159 H       
  42 H42            5.5861     3.9061     5.9244 H       
  43 H43            5.5612     0.3945     6.5353 H       
  44 H44            6.2366    -0.6696     8.6494 H       
  45 H45            6.5984     3.1672    10.4774 H       
  46 H46            9.1709     1.2977    10.9901 H       
  47 H47            9.1348    -0.1687    11.9983 H       
  48 H48            9.0195    -0.3033    10.2272 H       
@<TRIPOS>BOND
   1    1    2 1
   2    1    6 1
   3    1   31 1
   4    1   32 1
   5    2    3 1
   6    2   33 1
   7    2   34 1
   8    3    4 ar
   9    3    7 ar
  10    4    5 1
  11    4   10 ar
  12    5    6 1
  13    5   11 am
  14    6   35 1
  15    6   36 1
  16    7    8 ar
  17    7   37 1
  18    8    9 ar
  19    8   26 1
  20    9   10 ar
  21    9   38 1
  22   10   25 1
  23   11   12 am
  24   11   13 2
  25   12   14 1
  26   12   39 1
  27   14   15 1
  28   14   40 1
  29   14   41 1
  30   15   16 am
  31   15   17 2
  32   16   18 1
  33   16   42 1
  34   18   19 ar
  35   18   23 ar
  36   19   20 ar
  37   19   43 1
  38   20   21 ar
  39   20   44 1
  40   21   22 ar
  41   21   27 1
  42   22   23 ar
  43   22   45 1
  44   23   24 1
  45   27   28 2
  46   27   29 2
  47   27   30 1
  48   30   46 1
  49   30   47 1
  50   30   48 1

#	End of record

