#	Name: ASD05323004
#	Creating user name:	WinNT
#	Creation time:	15. 06. 2019 20:59

#	Modifying user name:	WinNT
#	Modification time:	15. 06. 2019 20:59

#	Program:	/corina/corina34_cracker 3.40 0067  02.08.2006

@<TRIPOS>MOLECULE
ASD05323004
  65   68    0    0    0
SMALL
NO_CHARGES


@<TRIPOS>ATOM
   1 C1            -0.0187     1.5258     0.0104 C.3     
   2 C2             0.0021    -0.0041     0.0020 C.3     
   3 P3             1.6916     2.1568    -0.0025 P.3     
   4 O4             1.6705     3.7619    -0.1260 O.3     
   5 O5             2.4302     1.7333     1.3640 O.3     
   6 O6             2.4205     1.5828    -1.1556 O.2     
   7 O7            -3.6873    -2.5652     0.5221 O.3     
   8 C8            -2.8362    -3.1693     1.5180 C.3     
   9 O9            -1.5540    -2.5338     1.3855 O.3     
  10 C10           -1.4413    -2.0811     0.0271 C.3     
  11 C11           -2.8179    -2.4094    -0.6232 C.3     
  12 O12           -2.1070    -0.1960    -1.2175 O.3     
  13 C13           -1.4333    -0.5336     0.0129 C.3     
  14 C14           -3.2036    -1.1135    -1.3597 C.3     
  15 C15           -3.4046    -2.9214     2.9167 C.3     
  16 C16           -2.7082    -4.6719     1.2596 C.3     
  17 C17           -2.4132    -1.8250    -3.5381 C.2     
  18 N18           -2.5682    -2.1006    -4.8450 N.am    
  19 C19           -3.7731    -1.9515    -5.4344 C.2     
  20 C20           -4.9030    -1.4844    -4.6203 C.2     
  21 C21           -4.6843    -1.2211    -3.3008 C.2     
  22 N22           -3.4345    -1.3971    -2.7784 N.am    
  23 C23           -6.2478    -1.3033    -5.2188 C.ar    
  24 C24           -6.4514    -0.3346    -6.2002 C.ar    
  25 C25           -7.7043    -0.1697    -6.7543 C.ar    
  26 C26           -8.7590    -0.9650    -6.3366 C.ar    
  27 C27           -8.5614    -1.9288    -5.3611 C.ar    
  28 C28           -7.3105    -2.1051    -4.8059 C.ar    
  29 F29           -9.9840    -0.8000    -6.8818 F       
  30 O30           -3.9205    -2.1987    -6.6172 O.2     
  31 O31           -1.3190    -1.9721    -3.0288 O.2     
  32 C32            2.8560     4.5473    -0.2664 C.3     
  33 C33            2.4794     6.0275    -0.3564 C.3     
  34 C34            3.8140     1.9894     1.6123 C.3     
  35 C35            4.1898     1.4605     2.9980 C.3     
  36 H36           -0.5990    -2.5276    -0.5013 H       
  37 H37           -2.7936    -3.2893    -1.2662 H       
  38 H38           -0.5459     1.8868    -0.8726 H       
  39 H39           -0.5289     1.8773     0.9072 H       
  40 H40            0.5123    -0.3556    -0.8948 H       
  41 H41            0.5293    -0.3651     0.8851 H       
  42 H42           -1.9808    -0.1403     0.8694 H       
  43 H43           -4.1028    -0.6879    -0.9142 H       
  44 H44           -4.3906    -3.3795     2.9946 H       
  45 H45           -2.7405    -3.3597     3.6617 H       
  46 H46           -3.4876    -1.8485     3.0902 H       
  47 H47           -2.2993    -4.8356     0.2626 H       
  48 H48           -2.0430    -5.1129     2.0020 H       
  49 H49           -3.6912    -5.1377     1.3302 H       
  50 H50           -1.8104    -2.4077    -5.3667 H       
  51 H51           -5.4927    -0.8758    -2.6734 H       
  52 H52           -5.6299     0.2861    -6.5262 H       
  53 H53           -7.8631     0.5809    -7.5145 H       
  54 H54           -9.3865    -2.5463    -5.0383 H       
  55 H55           -7.1562    -2.8601    -4.0492 H       
  56 H56            3.5015     4.3885     0.5974 H       
  57 H57            3.3830     4.2507    -1.1733 H       
  58 H58            3.3837     6.6266    -0.4635 H       
  59 H59            1.8339     6.1863    -1.2202 H       
  60 H60            1.9524     6.3241     0.5504 H       
  61 H61            4.4177     1.4879     0.8560 H       
  62 H62            3.9979     3.0629     1.5710 H       
  63 H63            3.5860     1.9620     3.7543 H       
  64 H64            4.0058     0.3869     3.0393 H       
  65 H65            5.2453     1.6558     3.1874 H       
@<TRIPOS>BOND
   1    1    2 1
   2    1    3 1
   3    1   38 1
   4    1   39 1
   5    2   13 1
   6    2   40 1
   7    2   41 1
   8    3    4 1
   9    3    5 1
  10    3    6 2
  11    4   32 1
  12    5   34 1
  13    7    8 1
  14    7   11 1
  15    8    9 1
  16    8   15 1
  17    8   16 1
  18    9   10 1
  19   10   11 1
  20   10   36 1
  21   10   13 1
  22   11   37 1
  23   11   14 1
  24   12   13 1
  25   12   14 1
  26   13   42 1
  27   14   22 1
  28   14   43 1
  29   15   44 1
  30   15   45 1
  31   15   46 1
  32   16   47 1
  33   16   48 1
  34   16   49 1
  35   17   18 am
  36   17   22 am
  37   17   31 2
  38   18   19 am
  39   18   50 1
  40   19   20 1
  41   19   30 2
  42   20   21 2
  43   20   23 1
  44   21   22 1
  45   21   51 1
  46   23   24 ar
  47   23   28 ar
  48   24   25 ar
  49   24   52 1
  50   25   26 ar
  51   25   53 1
  52   26   27 ar
  53   26   29 1
  54   27   28 ar
  55   27   54 1
  56   28   55 1
  57   32   33 1
  58   32   56 1
  59   32   57 1
  60   33   58 1
  61   33   59 1
  62   33   60 1
  63   34   35 1
  64   34   61 1
  65   34   62 1
  66   35   63 1
  67   35   64 1
  68   35   65 1

#	End of record

