#	Name: ASD03621009
#	Creating user name:	WinNT
#	Creation time:	15. 06. 2019 20:43

#	Modifying user name:	WinNT
#	Modification time:	15. 06. 2019 20:43

#	Program:	/corina/corina34_cracker 3.40 0067  02.08.2006

@<TRIPOS>MOLECULE
ASD03621009
  87   90    0    0    0
SMALL
NO_CHARGES


@<TRIPOS>ATOM
   1 C1             6.0054     6.1651     3.5725 C.ar    
   2 C2             7.2484     6.7009     3.2922 C.ar    
   3 C3             7.8009     6.5444     2.0348 C.ar    
   4 C4             7.1106     5.8516     1.0578 C.ar    
   5 C5             5.8679     5.3150     1.3384 C.ar    
   6 C6             5.3148     5.4728     2.5954 C.ar    
   7 C7             7.7125     5.6818    -0.3133 C.3     
   8 C8             8.5305     4.4167    -0.3497 C.2     
   9 N9             9.1668     4.0579    -1.4823 N.am    
  10 O10            8.6163     3.7214     0.6403 O.2     
  11 C11            8.7240     0.0722    -4.3838 C.2     
  12 N12            9.7829     0.7756    -4.8316 N.am    
  13 O13            8.6295    -1.1098    -4.6388 O.2     
  14 C14           10.8197     0.1125    -5.6263 C.3     
  15 C15           12.1178     0.8652    -5.4868 C.2     
  16 N16           13.2189     0.4353    -6.1343 N.am    
  17 O17           12.1716     1.8578    -4.7920 O.2     
  18 C18           10.3986     0.0901    -7.0971 C.3     
  19 C19            9.1678    -0.7651    -7.2543 C.ar    
  20 C20           14.4516     1.2255    -6.0873 C.3     
  21 C21           14.8707     1.6020    -7.5098 C.3     
  22 C22           15.5608     0.4017    -5.4300 C.3     
  23 C23           15.2029     0.1353    -3.9905 C.ar    
  24 C24           14.4821    -0.9956    -3.6555 C.ar    
  25 C25           14.1538    -1.2400    -2.3351 C.ar    
  26 C26           14.5466    -0.3536    -1.3498 C.ar    
  27 C27           15.2681     0.7770    -1.6847 C.ar    
  28 C28           15.6002     1.0191    -3.0046 C.ar    
  29 C29            7.6575     0.7543    -3.5663 C.3     
  30 C30            7.9089    -0.2062    -7.1449 C.ar    
  31 N31            6.8271    -0.9483    -7.2813 N.ar    
  32 C32            6.9000    -2.2419    -7.5257 C.ar    
  33 C33            8.1250    -2.8703    -7.6485 C.ar    
  34 C34            9.2844    -2.1219    -7.5161 C.ar    
  35 C35            6.6430     1.4697    -4.4929 C.3     
  36 C36            6.0750     2.5619    -3.5485 C.3     
  37 C37            7.3012     2.9552    -2.6981 C.3     
  38 N38            8.2470     1.8308    -2.7497 N.am    
  39 N39            9.9273     2.8818    -1.5161 N.am    
  40 C40            9.4530     1.7906    -2.1491 C.2     
  41 O41           10.1129     0.7699    -2.1785 O.2     
  42 C42           11.2381     2.8381    -0.8634 C.3     
  43 C43           11.0887     2.2746     0.5263 C.2     
  44 C44           11.8012     1.2383     0.8930 C.2     
  45 C45           13.8395     2.5223    -8.1103 C.2     
  46 O46           12.9262     2.9304    -7.4326 O.2     
  47 O47           13.9357     2.8888    -9.3980 O.3     
  48 H48            5.5757     6.2835     4.5562 H       
  49 H49            7.7878     7.2421     4.0554 H       
  50 H50            8.7718     6.9636     1.8155 H       
  51 H51            5.3283     4.7744     0.5749 H       
  52 H52            4.3438     5.0538     2.8145 H       
  53 H53            6.9159     5.6209    -1.0548 H       
  54 H54            8.3528     6.5351    -0.5372 H       
  55 H55            9.0982     4.6140    -2.2741 H       
  56 H56            9.8585     1.7209    -4.6276 H       
  57 H57           10.9522    -0.9093    -5.2707 H       
  58 H58           13.1953    -0.3973    -6.6313 H       
  59 H59           10.1802     1.1054    -7.4280 H       
  60 H60           11.2073    -0.3226    -7.7003 H       
  61 H61           14.2801     2.1322    -5.5071 H       
  62 H62           15.8364     2.1068    -7.4825 H       
  63 H63           14.9494     0.6996    -8.1162 H       
  64 H64           15.6715    -0.5453    -5.9581 H       
  65 H65           16.4991     0.9546    -5.4747 H       
  66 H66           14.1752    -1.6882    -4.4253 H       
  67 H67           13.5901    -2.1232    -2.0734 H       
  68 H68           14.2894    -0.5441    -0.3183 H       
  69 H69           15.5747     1.4697    -0.9150 H       
  70 H70           16.1639     1.9023    -3.2663 H       
  71 H71            7.1465     0.0306    -2.9313 H       
  72 H72            7.8095     0.8505    -6.9452 H       
  73 H73            5.9921    -2.8172    -7.6308 H       
  74 H74            8.1782    -3.9304    -7.8483 H       
  75 H75           10.2554    -2.5860    -7.6072 H       
  76 H76            7.1453     1.9174    -5.3504 H       
  77 H77            5.8583     0.7853    -4.8153 H       
  78 H78            5.7125     3.4159    -4.1207 H       
  79 H79            5.2840     2.1542    -2.9192 H       
  80 H80            7.7667     3.8504    -3.1106 H       
  81 H81            6.9953     3.1353    -1.6675 H       
  82 H82           11.9110     2.2050    -1.4417 H       
  83 H83           11.6485     3.8461    -0.8045 H       
  84 H84           10.3942     2.7252     1.2199 H       
  85 H85           11.6941     0.8345     1.8890 H       
  86 H86           12.4957     0.7877     0.1994 H       
  87 H87           13.2507     3.4805    -9.7384 H       
@<TRIPOS>BOND
   1    1    2 ar
   2    1    6 ar
   3    1   48 1
   4    2    3 ar
   5    2   49 1
   6    3    4 ar
   7    3   50 1
   8    4    5 ar
   9    4    7 1
  10    5    6 ar
  11    5   51 1
  12    6   52 1
  13    7    8 1
  14    7   53 1
  15    7   54 1
  16    8    9 am
  17    8   10 2
  18    9   39 1
  19    9   55 1
  20   11   12 am
  21   11   13 2
  22   11   29 1
  23   12   14 1
  24   12   56 1
  25   14   15 1
  26   14   18 1
  27   14   57 1
  28   15   16 am
  29   15   17 2
  30   16   20 1
  31   16   58 1
  32   18   19 1
  33   18   59 1
  34   18   60 1
  35   19   30 ar
  36   19   34 ar
  37   20   21 1
  38   20   22 1
  39   20   61 1
  40   21   45 1
  41   21   62 1
  42   21   63 1
  43   22   23 1
  44   22   64 1
  45   22   65 1
  46   23   24 ar
  47   23   28 ar
  48   24   25 ar
  49   24   66 1
  50   25   26 ar
  51   25   67 1
  52   26   27 ar
  53   26   68 1
  54   27   28 ar
  55   27   69 1
  56   28   70 1
  57   29   35 1
  58   29   38 1
  59   29   71 1
  60   30   31 ar
  61   30   72 1
  62   31   32 ar
  63   32   33 ar
  64   32   73 1
  65   33   34 ar
  66   33   74 1
  67   34   75 1
  68   35   36 1
  69   35   76 1
  70   35   77 1
  71   36   37 1
  72   36   78 1
  73   36   79 1
  74   37   38 1
  75   37   80 1
  76   37   81 1
  77   38   40 am
  78   39   40 am
  79   39   42 1
  80   40   41 2
  81   42   43 1
  82   42   82 1
  83   42   83 1
  84   43   44 2
  85   43   84 1
  86   44   85 1
  87   44   86 1
  88   45   46 2
  89   45   47 1
  90   47   87 1

#	End of record

