#	Name: ASD01880516
#	Creating user name:	WinNT
#	Creation time:	15. 06. 2019 19:40

#	Modifying user name:	WinNT
#	Modification time:	15. 06. 2019 19:40

#	Program:	/corina/corina34_cracker 3.40 0067  02.08.2006

@<TRIPOS>MOLECULE
ASD01880516
  40   42    0    0    0
SMALL
NO_CHARGES


@<TRIPOS>ATOM
   1 N1            -0.0158     1.3145     0.0093 N.ar    
   2 C2             0.0021    -0.0041     0.0020 C.ar    
   3 N3             1.1326    -0.6838    -0.0124 N.ar    
   4 C4             2.3029    -0.0619    -0.0203 C.ar    
   5 C5             2.3326     1.3190    -0.0131 C.ar    
   6 C6             1.1186     2.0084     0.0022 C.ar    
   7 C7             3.6431     2.0631    -0.0212 C.3     
   8 O8             4.7225     1.1267    -0.0361 O.3     
   9 C9             5.9802     1.6364    -0.0449 C.ar    
  10 C10            7.0771     0.7803    -0.0595 C.ar    
  11 C11            8.3488     1.2972    -0.0689 C.ar    
  12 C12            8.5502     2.6814    -0.0637 C.ar    
  13 C13            7.4451     3.5368    -0.0494 C.ar    
  14 C14            6.1714     3.0130    -0.0450 C.ar    
  15 C15            9.7194     0.6675    -0.0849 C.3     
  16 N16           10.6798     1.7769    -0.0884 N.am    
  17 C17           10.0010     2.9369    -0.0761 C.2     
  18 O18           10.5118     4.0402    -0.0757 O.2     
  19 Cl19          -1.5031    -0.8689     0.0123 Cl      
  20 N20            1.0962     3.3936     0.0094 N.pl3   
  21 C21           14.1567     1.4617    -1.5642 C.3     
  22 C22           12.6332     1.6023    -1.5496 C.3     
  23 C23           12.1386     1.6422    -0.1023 C.3     
  24 H24            3.2225    -0.6281    -0.0317 H       
  25 H25            3.6972     2.6941    -0.9083 H       
  26 H26            3.7135     2.6845     0.8716 H       
  27 H27            6.9281    -0.2894    -0.0632 H       
  28 H28            7.5896     4.6071    -0.0450 H       
  29 H29            5.3178     3.6745    -0.0343 H       
  30 H30            9.8599     0.0530     0.8043 H       
  31 H31            9.8431     0.0621    -0.9828 H       
  32 H32            1.9282     3.8922     0.0038 H       
  33 H33            0.2484     3.8649     0.0200 H       
  34 H34           14.6050     2.3120    -1.0503 H       
  35 H35           14.4413     0.5396    -1.0574 H       
  36 H36           14.5091     1.4333    -2.5952 H       
  37 H37           12.3486     2.5244    -2.0564 H       
  38 H38           12.1849     0.7520    -2.0635 H       
  39 H39           12.5869     2.4926     0.4116 H       
  40 H40           12.4232     0.7202     0.4045 H       
@<TRIPOS>BOND
   1    1    2 ar
   2    1    6 ar
   3    2    3 ar
   4    2   19 1
   5    3    4 ar
   6    4    5 ar
   7    4   24 1
   8    5    6 ar
   9    5    7 1
  10    6   20 1
  11    7    8 1
  12    7   25 1
  13    7   26 1
  14    8    9 1
  15    9   10 ar
  16    9   14 ar
  17   10   11 ar
  18   10   27 1
  19   11   12 ar
  20   11   15 1
  21   12   13 ar
  22   12   17 1
  23   13   14 ar
  24   13   28 1
  25   14   29 1
  26   15   16 1
  27   15   30 1
  28   15   31 1
  29   16   17 am
  30   16   23 1
  31   17   18 2
  32   20   32 1
  33   20   33 1
  34   21   22 1
  35   21   34 1
  36   21   35 1
  37   21   36 1
  38   22   23 1
  39   22   37 1
  40   22   38 1
  41   23   39 1
  42   23   40 1

#	End of record

