#	Name: ASD01882001
#	Creating user name:	WinNT
#	Creation time:	15. 06. 2019 19:43

#	Modifying user name:	WinNT
#	Modification time:	15. 06. 2019 19:43

#	Program:	/corina/corina34_cracker 3.40 0067  02.08.2006

@<TRIPOS>MOLECULE
ASD01882001
  51   55    0    0    0
SMALL
NO_CHARGES


@<TRIPOS>ATOM
   1 N1             0.1157     0.9294    -0.1312 N.pl3   
   2 N2             0.1794    -0.3568    -0.1641 N.2     
   3 N3             1.3964    -0.7740    -0.1788 N.2     
   4 C4             2.2298     0.2857    -0.1547 C.ar    
   5 C5             1.3986     1.4215    -0.1231 C.ar    
   6 C6             3.6178     0.4471    -0.1550 C.ar    
   7 C7             4.1538     1.7194    -0.1241 C.ar    
   8 C8             3.3207     2.8352    -0.0930 C.ar    
   9 C9             1.9614     2.6908    -0.0932 C.ar    
  10 O10            5.5037     1.8839    -0.1237 O.3     
  11 C11            5.9937     3.2259    -0.0910 C.3     
  12 N12           10.0714     3.8744     0.9379 N.am    
  13 C13            9.5789     4.6241    -0.2257 C.3     
  14 C14            8.0477     4.6455    -0.1864 C.3     
  15 C15            7.5236     3.2105    -0.0956 C.3     
  16 C16            8.0309     2.5610     1.1939 C.3     
  17 C17            9.5620     2.5160     1.1703 C.3     
  18 C18           10.9776     4.4201     1.7731 C.2     
  19 O19           11.4771     5.4956     1.5086 O.2     
  20 O20           11.3639     2.2730     4.5240 O.3     
  21 N21           10.8309     2.6113     3.4929 N.2     
  22 C22           11.3650     3.7077     3.0151 C.2     
  23 C23           12.3922     4.0770     3.9275 C.2     
  24 C24           12.3440     3.1155     4.8785 C.2     
  25 C25           -1.1118     1.7289    -0.1122 C.3     
  26 C26           -1.5405     1.9709     1.3364 C.3     
  27 C27           -2.7413     2.8887     1.5739 C.3     
  28 C28           -2.8782     1.3796     1.7854 C.3     
  29 Br29           4.7531    -1.0646    -0.1966 Br      
  30 H30            3.7531     3.8246    -0.0687 H       
  31 H31            1.3254     3.5634    -0.0691 H       
  32 H32            5.6331     3.7658    -0.9665 H       
  33 H33            5.6381     3.7206     0.8129 H       
  34 H34            9.9596     5.6449    -0.1905 H       
  35 H35            9.9142     4.1383    -1.1421 H       
  36 H36            7.7139     5.2104     0.6840 H       
  37 H37            7.6670     5.1151    -1.0934 H       
  38 H38            7.8784     2.6394    -0.9536 H       
  39 H39            7.6973     3.1456     2.0513 H       
  40 H40            7.6382     1.5470     1.2694 H       
  41 H41            9.8958     1.8582     0.3678 H       
  42 H42            9.9315     2.1458     2.1266 H       
  43 H43           13.0562     4.9270     3.8737 H       
  44 H44           12.9728     3.0418     5.7535 H       
  45 H45           -0.9298     2.6856    -0.6019 H       
  46 H46           -1.9015     1.1948    -0.6405 H       
  47 H47           -0.7322     2.0003     2.0672 H       
  48 H48           -2.7234     3.5217     2.4611 H       
  49 H49           -3.2260     3.3201     0.6981 H       
  50 H50           -3.4529     0.8182     1.0488 H       
  51 H51           -2.9503     1.0197     2.8118 H       
@<TRIPOS>BOND
   1    1    2 1
   2    1    5 1
   3    1   25 1
   4    2    3 2
   5    3    4 1
   6    4    5 ar
   7    4    6 ar
   8    5    9 ar
   9    6    7 ar
  10    6   29 1
  11    7    8 ar
  12    7   10 1
  13    8    9 ar
  14    8   30 1
  15    9   31 1
  16   10   11 1
  17   11   15 1
  18   11   32 1
  19   11   33 1
  20   12   13 1
  21   12   17 1
  22   12   18 am
  23   13   14 1
  24   13   34 1
  25   13   35 1
  26   14   15 1
  27   14   36 1
  28   14   37 1
  29   15   16 1
  30   15   38 1
  31   16   17 1
  32   16   39 1
  33   16   40 1
  34   17   41 1
  35   17   42 1
  36   18   19 2
  37   18   22 1
  38   20   21 1
  39   20   24 1
  40   21   22 2
  41   22   23 1
  42   23   24 2
  43   23   43 1
  44   24   44 1
  45   25   26 1
  46   25   45 1
  47   25   46 1
  48   26   27 1
  49   26   28 1
  50   26   47 1
  51   27   28 1
  52   27   48 1
  53   27   49 1
  54   28   50 1
  55   28   51 1

#	End of record

