#	Name: ASD02198562
#	Creating user name:	WinNT
#	Creation time:	15. 06. 2019 20:19

#	Modifying user name:	WinNT
#	Modification time:	15. 06. 2019 20:19

#	Program:	/corina/corina34_cracker 3.40 0067  02.08.2006

@<TRIPOS>MOLECULE
ASD02198562
  54   58    0    0    0
SMALL
NO_CHARGES


@<TRIPOS>ATOM
   1 C1             0.0071     1.5094     0.1335 C.2     
   2 C2             0.0745     0.1695    -0.0947 C.2     
   3 N3            -1.0523    -0.5608    -0.2645 N.pl3   
   4 N4            -2.2302    -0.0574    -0.2242 N.2     
   5 C5            -2.4379     1.2254    -0.0113 C.2     
   6 C6            -1.2794     2.1063     0.1923 C.2     
   7 C7            -0.9248    -1.9332    -0.4959 C.ar    
   8 C8            -1.3876    -3.8611    -1.8511 C.ar    
   9 C9            -0.6720    -4.6561    -0.9544 C.ar    
  10 C10           -0.0890    -4.0787     0.1755 C.ar    
  11 C11           -0.2166    -2.7254     0.4007 C.ar    
  12 C12           -3.8111     1.7682     0.0282 C.2     
  13 N13           -4.3735     2.4809     1.0496 N.pl3   
  14 N14           -5.6850     2.7997     0.6760 N.2     
  15 C15           -5.9149     2.3070    -0.5149 C.2     
  16 C16           -4.7641     1.6565    -0.9603 C.2     
  17 C17           -3.7501     2.8293     2.2546 C.ar    
  18 C18           -2.9575     1.9040     2.9209 C.ar    
  19 O19           -1.4174     3.3042     0.3939 O.2     
  20 C20           -3.9189     4.1026     2.7826 C.ar    
  21 C21           -3.3030     4.4430     3.9709 C.ar    
  22 C22           -2.5189     3.5175     4.6349 C.ar    
  23 C23           -2.3442     2.2506     4.1089 C.ar    
  24 C24           -1.5121    -2.5058    -1.6213 C.ar    
  25 F25           -2.2044    -1.7347    -2.4880 F       
  26 O26            1.1344     2.2506     0.3052 O.3     
  27 C27            2.3828     1.5588     0.2347 C.3     
  28 C28           -0.5366    -6.1072    -1.1972 C.2     
  29 C29            0.1338    -6.5147    -2.2549 C.2     
  30 C30           -1.1641    -7.0675    -0.2243 C.3     
  31 C31           -1.2647    -8.4545    -0.8650 C.3     
  32 O32            0.0020    -8.7755    -1.4526 O.3     
  33 C33            0.3171    -7.9685    -2.5874 C.3     
  34 H34            1.0378    -0.3164    -0.1411 H       
  35 H35           -1.8395    -4.3050    -2.7258 H       
  36 H36            0.4651    -4.6921     0.8707 H       
  37 H37            0.2344    -2.2793     1.2748 H       
  38 H38           -6.8414     2.3929    -1.0633 H       
  39 H39           -4.6440     1.1508    -1.9070 H       
  40 H40           -2.8210     0.9143     2.5108 H       
  41 H41           -4.5309     4.8259     2.2642 H       
  42 H42           -3.4336     5.4332     4.3818 H       
  43 H43           -2.0383     3.7862     5.5641 H       
  44 H44           -1.7313     1.5300     4.6298 H       
  45 H45            3.1987     2.2650     0.3882 H       
  46 H46            2.4167     0.7909     1.0075 H       
  47 H47            2.4851     1.0928    -0.7453 H       
  48 H48            0.5690    -5.7743    -2.9098 H       
  49 H49           -0.5503    -7.1265     0.6745 H       
  50 H50           -2.1616    -6.7165     0.0400 H       
  51 H51           -1.5127    -9.1931    -0.1028 H       
  52 H52           -2.0349    -8.4468    -1.6363 H       
  53 H53           -0.3423    -8.2337    -3.4137 H       
  54 H54            1.3515    -8.1466    -2.8815 H       
@<TRIPOS>BOND
   1    1    2 2
   2    1   26 1
   3    1    6 1
   4    2    3 1
   5    2   34 1
   6    3    4 1
   7    3    7 1
   8    4    5 2
   9    5    6 1
  10    5   12 1
  11    6   19 2
  12    7   24 ar
  13    7   11 ar
  14    8    9 ar
  15    8   24 ar
  16    8   35 1
  17    9   10 ar
  18    9   28 1
  19   10   11 ar
  20   10   36 1
  21   11   37 1
  22   12   13 1
  23   12   16 2
  24   13   14 1
  25   13   17 1
  26   14   15 2
  27   15   16 1
  28   15   38 1
  29   16   39 1
  30   17   20 ar
  31   17   18 ar
  32   18   23 ar
  33   18   40 1
  34   20   21 ar
  35   20   41 1
  36   21   22 ar
  37   21   42 1
  38   22   23 ar
  39   22   43 1
  40   23   44 1
  41   24   25 1
  42   26   27 1
  43   27   45 1
  44   27   46 1
  45   27   47 1
  46   28   29 2
  47   28   30 1
  48   29   33 1
  49   29   48 1
  50   30   31 1
  51   30   49 1
  52   30   50 1
  53   31   32 1
  54   31   51 1
  55   31   52 1
  56   32   33 1
  57   33   53 1
  58   33   54 1

#	End of record

