#	Name: ASD01202042
#	Creating user name:	WinNT
#	Creation time:	15. 06. 2019 19:09

#	Modifying user name:	WinNT
#	Modification time:	15. 06. 2019 19:09

#	Program:	/corina/corina34_cracker 3.40 0067  02.08.2006

@<TRIPOS>MOLECULE
ASD01202042
  48   51    0    0    0
SMALL
NO_CHARGES


@<TRIPOS>ATOM
   1 C1            -0.0178     1.4628     0.0101 C.2     
   2 C2             0.0021    -0.0041     0.0020 C.2     
   3 C3             1.2915     1.8520    -0.0003 C.2     
   4 C4            -1.2051     2.3360     0.0207 C.2     
   5 C5             1.3115    -0.3567    -0.0124 C.2     
   6 O6             2.0622     0.7601    -0.0135 O.3     
   7 O7            -1.0710     3.5447     0.0262 O.2     
   8 N8            -2.4395     1.7950     0.0244 N.am    
   9 C9             1.8294    -1.7414    -0.0248 C.ar    
  10 C10           -3.5586     2.6180     0.0344 C.2     
  11 S11           -3.5168     4.3248     0.0355 S.3     
  12 N12           -4.7797     2.2038     0.0386 N.2     
  13 C13           -5.2817     4.3796     0.0499 C.2     
  14 C14           -5.7474     3.1265     0.0486 C.2     
  15 H15           -2.5465     0.8309     0.0200 H       
  16 C16            2.7926    -2.1210    -0.9605 C.ar    
  17 C17            3.2721    -3.4148    -0.9663 C.ar    
  18 C18            2.8002    -4.3347    -0.0473 C.ar    
  19 C19            1.8451    -3.9648     0.8832 C.ar    
  20 C20            1.3613    -2.6732     0.9032 C.ar    
  21 C21            1.7850     3.2759     0.0018 C.3     
  22 S22            3.3946    -0.9509    -2.1323 S.o2    
  23 O23            3.7705     0.1712    -1.3456 O.2     
  24 O24            4.3587    -1.6735    -2.8856 O.2     
  25 C25            1.9520    -0.5544    -3.1581 C.3     
  26 C26           -7.2735     3.1447     0.0634 C.3     
  27 C27           -7.6618     4.5719    -0.3726 C.3     
  28 C28           -6.4220     5.3809     0.0588 C.3     
  29 C29            1.9655     3.7509     1.4450 C.3     
  30 H30           -0.8507    -0.6668     0.0066 H       
  31 H31            4.0173    -3.7099    -1.6902 H       
  32 H32            3.1785    -5.3462    -0.0564 H       
  33 H33            1.4808    -4.6878     1.5980 H       
  34 H34            0.6159    -2.3857     1.6299 H       
  35 H35            2.7400     3.3303    -0.5207 H       
  36 H36            1.0582     3.9131    -0.5022 H       
  37 H37            1.1649    -0.1348    -2.5316 H       
  38 H38            2.2362     0.1719    -3.9196 H       
  39 H39            1.5880    -1.4621    -3.6396 H       
  40 H40           -7.6677     2.4130    -0.6419 H       
  41 H41           -7.6448     2.9416     1.0679 H       
  42 H42           -7.8036     4.6252    -1.4520 H       
  43 H43           -8.5538     4.9116     0.1538 H       
  44 H44           -6.5616     5.7831     1.0622 H       
  45 H45           -6.2287     6.1860    -0.6501 H       
  46 H46            2.3224     4.7808     1.4466 H       
  47 H47            1.0104     3.6966     1.9676 H       
  48 H48            2.6922     3.1138     1.9490 H       
@<TRIPOS>BOND
   1    1    2 1
   2    1    3 2
   3    1    4 1
   4    2    5 2
   5    2   30 1
   6    3   21 1
   7    3    6 1
   8    4    7 2
   9    4    8 am
  10    5    9 1
  11    5    6 1
  12    8   15 1
  13    8   10 1
  14    9   16 ar
  15    9   20 ar
  16   10   12 2
  17   10   11 1
  18   11   13 1
  19   12   14 1
  20   13   14 2
  21   13   28 1
  22   14   26 1
  23   16   17 ar
  24   16   22 1
  25   17   18 ar
  26   17   31 1
  27   18   19 ar
  28   18   32 1
  29   19   20 ar
  30   19   33 1
  31   20   34 1
  32   21   29 1
  33   21   35 1
  34   21   36 1
  35   22   23 2
  36   22   24 2
  37   22   25 1
  38   25   37 1
  39   25   38 1
  40   25   39 1
  41   26   27 1
  42   26   40 1
  43   26   41 1
  44   27   28 1
  45   27   42 1
  46   27   43 1
  47   28   44 1
  48   28   45 1
  49   29   46 1
  50   29   47 1
  51   29   48 1

#	End of record

