#	Name: ASD09740662
#	Creating user name:	WinNT
#	Creation time:	15. 06. 2019 21:23

#	Modifying user name:	WinNT
#	Modification time:	15. 06. 2019 21:23

#	Program:	/corina/corina34_cracker 3.40 0067  02.08.2006

@<TRIPOS>MOLECULE
ASD09740662
  46   49    0    0    0
SMALL
NO_CHARGES


@<TRIPOS>ATOM
   1 C1             0.0018    -0.0037    -0.0175 C.1     
   2 C2            -0.0174     1.4281     0.0015 C.ar    
   3 C3             1.1866     2.1485     0.0035 C.ar    
   4 C4             1.1649     3.5356     0.0215 C.ar    
   5 C5            -0.0364     4.2111     0.0374 C.ar    
   6 C6            -1.2421     3.5037     0.0361 C.ar    
   7 C7            -1.2324     2.1113     0.0123 C.ar    
   8 N8             0.0171    -1.1395    -0.0326 N.1     
   9 O9             2.3719     1.4887    -0.0117 O.3     
  10 C10            3.5546     2.2821    -0.1293 C.3     
  11 C11            3.9801     2.7717     1.2564 C.3     
  12 C12            4.6761     1.4386    -0.7388 C.3     
  13 S13           -2.7262     5.9868     0.0776 S.3     
  14 C14           -2.5272     4.2335     0.0538 C.2     
  15 N15           -3.7175     3.6954     0.0537 N.2     
  16 N16           -4.7107     4.4723     0.0696 N.2     
  17 C17           -4.4757     5.7565     0.0848 C.2     
  18 C18           -9.1876     6.9003     0.1291 C.3     
  19 C19           -8.9874     5.4279     0.5465 C.3     
  20 C20           -7.5381     5.1506     0.0938 C.3     
  21 C21           -6.8538     6.5005     0.1091 C.ar    
  22 C22           -5.4944     6.8275     0.1056 C.ar    
  23 C23           -5.1008     8.1652     0.1221 C.ar    
  24 C24           -6.0564     9.1602     0.1419 C.ar    
  25 C25           -7.3989     8.8319     0.1458 C.ar    
  26 C26           -7.7994     7.5045     0.1294 C.ar    
  27 O27           -9.7591     6.9716    -1.1788 O.3     
  28 H28            2.0928     4.0882     0.0233 H       
  29 H29           -0.0463     5.2909     0.0514 H       
  30 H30           -2.1627     1.5628     0.0068 H       
  31 H31            3.3545     3.1395    -0.7719 H       
  32 H32            4.1802     1.9143     1.8991 H       
  33 H33            4.8822     3.3769     1.1667 H       
  34 H34            3.1811     3.3726     1.6907 H       
  35 H35            4.3729     1.0898    -1.7259 H       
  36 H36            5.5782     2.0438    -0.8284 H       
  37 H37            4.8762     0.5812    -0.0961 H       
  38 H38           -9.8241     7.4145     0.8493 H       
  39 H39           -9.0847     5.3145     1.6262 H       
  40 H40           -9.6882     4.7778     0.0227 H       
  41 H41           -7.0480     4.4701     0.7900 H       
  42 H42           -7.5296     4.7336    -0.9132 H       
  43 H43           -4.0516     8.4214     0.1197 H       
  44 H44           -5.7549    10.1972     0.1547 H       
  45 H45           -8.1420     9.6154     0.1621 H       
  46 H46           -9.9079     7.8735    -1.4943 H       
@<TRIPOS>BOND
   1    1    2 1
   2    1    8 3
   3    2    3 ar
   4    2    7 ar
   5    3    4 ar
   6    3    9 1
   7    4    5 ar
   8    4   28 1
   9    5    6 ar
  10    5   29 1
  11    6    7 ar
  12    6   14 1
  13    7   30 1
  14    9   10 1
  15   10   11 1
  16   10   12 1
  17   10   31 1
  18   11   32 1
  19   11   33 1
  20   11   34 1
  21   12   35 1
  22   12   36 1
  23   12   37 1
  24   13   14 1
  25   13   17 1
  26   14   15 2
  27   15   16 1
  28   16   17 2
  29   17   22 1
  30   18   19 1
  31   18   26 1
  32   18   27 1
  33   18   38 1
  34   19   20 1
  35   19   39 1
  36   19   40 1
  37   20   21 1
  38   20   41 1
  39   20   42 1
  40   21   22 ar
  41   21   26 ar
  42   22   23 ar
  43   23   24 ar
  44   23   43 1
  45   24   25 ar
  46   24   44 1
  47   25   26 ar
  48   25   45 1
  49   27   46 1

#	End of record

