#	Name: ASD01200104
#	Creating user name:	WinNT
#	Creation time:	15. 06. 2019 19:08

#	Modifying user name:	WinNT
#	Modification time:	15. 06. 2019 19:08

#	Program:	/corina/corina34_cracker 3.40 0067  02.08.2006

@<TRIPOS>MOLECULE
ASD01200104
  59   63    0    0    0
SMALL
NO_CHARGES


@<TRIPOS>ATOM
   1 C1             0.6170     1.0680     2.4905 C.2     
   2 N2             0.5723    -0.2184     2.2467 N.2     
   3 C3             1.6892    -0.5948     1.5795 C.ar    
   4 C4             2.4766     0.5576     1.4037 C.ar    
   5 N5             1.7759     1.5950     1.9888 N.pl3   
   6 C6             2.1439    -1.8216     1.0842 C.ar    
   7 C7             3.3575    -1.8881     0.4299 C.ar    
   8 C8             4.1308    -0.7425     0.2601 C.ar    
   9 C9             3.6943     0.4722     0.7432 C.ar    
  10 C10           -0.4316     1.8371     3.1969 C.ar    
  11 C11           -1.5749     1.1855     3.6584 C.ar    
  12 C12           -2.5466     1.9185     4.3178 C.ar    
  13 C13           -2.3435     3.2797     4.4944 C.ar    
  14 C14           -1.1851     3.8617     4.0106 C.ar    
  15 N15           -0.2739     3.1409     3.3912 N.ar    
  16 O16            3.8009    -3.0797    -0.0515 O.3     
  17 C17            2.9791    -4.1565     0.0556 C.ar    
  18 C18            2.0601    -4.4319    -0.9469 C.ar    
  19 C19            1.2262    -5.5275    -0.8358 C.ar    
  20 C20            1.3063    -6.3492     0.2734 C.ar    
  21 C21            2.2212    -6.0771     1.2738 C.ar    
  22 C22            3.0614    -4.9860     1.1649 C.ar    
  23 S23            0.2403    -7.7453     0.4125 S.o2    
  24 O24            0.1310    -7.9646     1.8122 O.2     
  25 O25           -0.8966    -7.3970    -0.3655 O.2     
  26 C26            1.1598    -9.0970    -0.3737 C.3     
  27 C27            0.3287   -10.3803    -0.3160 C.3     
  28 C28            5.4535    -0.8315    -0.4565 C.3     
  29 S29            5.2607     0.4696    -2.9267 S.o2    
  30 N30            5.2248    -0.8497    -1.9034 N.am    
  31 C31            4.9221    -2.0332    -2.7222 C.3     
  32 C32            5.4464    -1.8327    -4.1570 C.3     
  33 C33            5.0059    -0.3873    -4.5286 C.3     
  34 O34            4.1246     1.2457    -2.5714 O.2     
  35 O35            6.5811     0.9843    -2.8222 O.2     
  36 H36            2.0534     2.5233     2.0348 H       
  37 H37            1.5480    -2.7130     1.2136 H       
  38 H38            4.2991     1.3567     0.6079 H       
  39 H39           -1.7006     0.1241     3.5032 H       
  40 H40           -3.4429     1.4417     4.6861 H       
  41 H41           -3.0829     3.8794     5.0044 H       
  42 H42           -1.0244     4.9209     4.1466 H       
  43 H43            1.9966    -3.7900    -1.8131 H       
  44 H44            0.5107    -5.7423    -1.6158 H       
  45 H45            2.2816    -6.7203     2.1393 H       
  46 H46            3.7787    -4.7762     1.9446 H       
  47 H47            1.3624    -8.8418    -1.4138 H       
  48 H48            2.1017    -9.2502     0.1530 H       
  49 H49           -0.6133   -10.2271    -0.8426 H       
  50 H50            0.8811   -11.1925    -0.7884 H       
  51 H51            0.1260   -10.6355     0.7242 H       
  52 H52            6.0665     0.0314    -0.1963 H       
  53 H53            5.9674    -1.7454    -0.1584 H       
  54 H54            5.3995    -2.9087    -2.2822 H       
  55 H55            3.8433    -2.1870    -2.7500 H       
  56 H56            6.5328    -1.9183    -4.1812 H       
  57 H57            4.9910    -2.5558    -4.8337 H       
  58 H58            3.9581    -0.3598    -4.8274 H       
  59 H59            5.6458     0.0317    -5.3052 H       
@<TRIPOS>BOND
   1    1    2 2
   2    1    5 1
   3    1   10 1
   4    2    3 1
   5    3    4 ar
   6    3    6 ar
   7    4    5 1
   8    4    9 ar
   9    5   36 1
  10    6    7 ar
  11    6   37 1
  12    7    8 ar
  13    7   16 1
  14    8    9 ar
  15    8   28 1
  16    9   38 1
  17   10   11 ar
  18   10   15 ar
  19   11   12 ar
  20   11   39 1
  21   12   13 ar
  22   12   40 1
  23   13   14 ar
  24   13   41 1
  25   14   15 ar
  26   14   42 1
  27   16   17 1
  28   17   18 ar
  29   17   22 ar
  30   18   19 ar
  31   18   43 1
  32   19   20 ar
  33   19   44 1
  34   20   21 ar
  35   20   23 1
  36   21   22 ar
  37   21   45 1
  38   22   46 1
  39   23   24 2
  40   23   25 2
  41   23   26 1
  42   26   27 1
  43   26   47 1
  44   26   48 1
  45   27   49 1
  46   27   50 1
  47   27   51 1
  48   28   30 1
  49   28   52 1
  50   28   53 1
  51   29   30 am
  52   29   33 1
  53   29   34 2
  54   29   35 2
  55   30   31 1
  56   31   32 1
  57   31   54 1
  58   31   55 1
  59   32   33 1
  60   32   56 1
  61   32   57 1
  62   33   58 1
  63   33   59 1

#	End of record

