#	Name: ASD04230039
#	Creating user name:	WinNT
#	Creation time:	15. 06. 2019 20:48

#	Modifying user name:	WinNT
#	Modification time:	15. 06. 2019 20:48

#	Program:	/corina/corina34_cracker 3.40 0067  02.08.2006

@<TRIPOS>MOLECULE
ASD04230039
  31   32    0    0    0
SMALL
NO_CHARGES


@<TRIPOS>ATOM
   1 N1            -0.0169     1.3927     0.0097 N.pl3   
   2 C2             1.2258    -2.0738    -0.0208 C.ar    
   3 C3             1.2122    -0.6813    -0.0132 C.ar    
   4 C4             0.0021    -0.0041     0.0020 C.ar    
   5 C5            -1.1920    -0.7157     0.0101 C.ar    
   6 C6            -1.1771    -2.0973     0.0030 C.ar    
   7 C7             0.0237    -2.7789    -0.0126 C.ar    
   8 C8             2.5168    -2.8048    -0.0432 C.ar    
   9 C9             2.5299    -4.1984    -0.0508 C.ar    
  10 C10            3.7314    -4.8752    -0.0722 C.ar    
  11 C11            4.9269    -4.1696    -0.0856 C.ar    
  12 C12            4.9169    -2.7813    -0.0776 C.ar    
  13 C13            3.7185    -2.0991    -0.0626 C.ar    
  14 O14            6.1091    -4.8390    -0.1062 O.3     
  15 C15            7.3009    -4.0507    -0.1191 C.3     
  16 C16            8.5219    -4.9724    -0.1416 C.3     
  17 H17            0.8165     1.8891     0.0044 H       
  18 H18           -0.8634     1.8662     0.0163 H       
  19 H19            2.1411    -0.1305    -0.0191 H       
  20 H20           -2.1338    -0.1873     0.0222 H       
  21 H21           -2.1074    -2.6458     0.0093 H       
  22 H22            0.0313    -3.8589    -0.0189 H       
  23 H23            1.6002    -4.7479    -0.0397 H       
  24 H24            3.7422    -5.9551    -0.0781 H       
  25 H25            5.8486    -2.2351    -0.0874 H       
  26 H26            3.7113    -1.0191    -0.0608 H       
  27 H27            7.3077    -3.4169    -1.0060 H       
  28 H28            7.3334    -3.4264     0.7738 H       
  29 H29            8.5151    -5.6062     0.7452 H       
  30 H30            8.4895    -5.5967    -1.0346 H       
  31 H31            9.4310    -4.3711    -0.1515 H       
@<TRIPOS>BOND
   1    1    4 1
   2    1   17 1
   3    1   18 1
   4    2    3 ar
   5    2    7 ar
   6    2    8 1
   7    3    4 ar
   8    3   19 1
   9    4    5 ar
  10    5    6 ar
  11    5   20 1
  12    6    7 ar
  13    6   21 1
  14    7   22 1
  15    8    9 ar
  16    8   13 ar
  17    9   10 ar
  18    9   23 1
  19   10   11 ar
  20   10   24 1
  21   11   12 ar
  22   11   14 1
  23   12   13 ar
  24   12   25 1
  25   13   26 1
  26   14   15 1
  27   15   16 1
  28   15   27 1
  29   15   28 1
  30   16   29 1
  31   16   30 1
  32   16   31 1

#	End of record

