#	Name: ASD02500435
#	Creating user name:	WinNT
#	Creation time:	15. 06. 2019 20:22

#	Modifying user name:	WinNT
#	Modification time:	15. 06. 2019 20:22

#	Program:	/corina/corina34_cracker 3.40 0067  02.08.2006

@<TRIPOS>MOLECULE
ASD02500435
  64   68    0    0    0
SMALL
NO_CHARGES


@<TRIPOS>ATOM
   1 N1             1.8450     3.9504    -0.9070 N.ar    
   2 C2             2.8170     3.6368    -0.0853 C.ar    
   3 C3             3.9421     2.9357    -0.5140 C.ar    
   4 C4             4.0519     2.5567    -1.8216 C.ar    
   5 C5             3.0060     2.8949    -2.7011 C.ar    
   6 C6             3.0486     2.5398    -4.0586 C.ar    
   7 C7             2.0170     2.8857    -4.8774 C.ar    
   8 C8             0.9189     3.5883    -4.3859 C.ar    
   9 C9             0.8449     3.9486    -3.0755 C.ar    
  10 C10            1.8901     3.6096    -2.1989 C.ar    
  11 S11           -0.5553     4.8374    -2.4804 S.o2    
  12 O12           -0.0466     5.9376    -1.7387 O.2     
  13 O13           -1.4358     4.9859    -3.5858 O.2     
  14 N14           -1.3311     3.8589    -1.3928 N.am    
  15 C15           -1.8626     2.6428    -1.8075 C.ar    
  16 C16           -1.6332     1.4926    -1.0575 C.ar    
  17 C17           -2.1579     0.2875    -1.4652 C.ar    
  18 C18           -2.9218     0.2191    -2.6340 C.ar    
  19 C19           -3.1503     1.3759    -3.3849 C.ar    
  20 C20           -2.6277     2.5790    -2.9688 C.ar    
  21 C21           -3.4853    -1.0712    -3.0742 C.2     
  22 O22           -4.6082    -1.1176    -3.5384 O.2     
  23 N23           -2.7555    -2.1987    -2.9619 N.am    
  24 C24           -3.2653    -3.4816    -3.4692 C.3     
  25 C25           -2.1941    -4.1106    -4.3664 C.3     
  26 N26           -0.9277    -4.1943    -3.6266 N.3     
  27 C27           -0.4291    -2.8591    -3.2709 C.3     
  28 C28           -1.4255    -2.1776    -2.3343 C.3     
  29 C29            0.0784    -4.9461    -4.3886 C.3     
  30 C30            1.4225    -4.8044    -3.7221 C.ar    
  31 C31            1.7313    -5.5772    -2.6179 C.ar    
  32 C32            2.9636    -5.4479    -2.0053 C.ar    
  33 C33            3.8887    -4.5458    -2.4960 C.ar    
  34 C34            3.5808    -3.7718    -3.6017 C.ar    
  35 C35            2.3480    -3.9062    -4.2181 C.ar    
  36 C36            0.7234    -6.5608    -2.0816 C.3     
  37 F37            1.2603    -7.2196    -0.9704 F       
  38 F38           -0.4380    -5.8788    -1.7031 F       
  39 F39            0.4121    -7.4970    -3.0734 F       
  40 F40            4.4841    -2.8894    -4.0819 F       
  41 H41            2.7438     3.9300     0.9516 H       
  42 H42            4.7270     2.6924     0.1869 H       
  43 H43            4.9171     2.0131    -2.1711 H       
  44 H44            3.8948     1.9957    -4.4514 H       
  45 H45            2.0506     2.6121    -5.9216 H       
  46 H46            0.1136     3.8517    -5.0556 H       
  47 H47           -1.4147     4.1341    -0.4664 H       
  48 H48           -1.0426     1.5460    -0.1548 H       
  49 H49           -1.9793    -0.6045    -0.8832 H       
  50 H50           -3.7398     1.3262    -4.2885 H       
  51 H51           -2.8079     3.4739    -3.5460 H       
  52 H52           -3.4793    -4.1471    -2.6328 H       
  53 H53           -4.1736    -3.3118    -4.0473 H       
  54 H54           -2.5092    -5.1112    -4.6624 H       
  55 H55           -2.0562    -3.4945    -5.2550 H       
  56 H56            0.5357    -2.9520    -2.7724 H       
  57 H57           -0.3159    -2.2604    -4.1747 H       
  58 H58           -1.1180    -1.1461    -2.1625 H       
  59 H59           -1.4592    -2.7153    -1.3867 H       
  60 H60           -0.2021    -5.9989    -4.4205 H       
  61 H61            0.1332    -4.5537    -5.4040 H       
  62 H62            3.2036    -6.0518    -1.1426 H       
  63 H63            4.8512    -4.4444    -2.0167 H       
  64 H64            2.1084    -3.3061    -5.0834 H       
@<TRIPOS>BOND
   1    1    2 ar
   2    1   10 ar
   3    2    3 ar
   4    2   41 1
   5    3    4 ar
   6    3   42 1
   7    4    5 ar
   8    4   43 1
   9    5    6 ar
  10    5   10 ar
  11    6    7 ar
  12    6   44 1
  13    7    8 ar
  14    7   45 1
  15    8    9 ar
  16    8   46 1
  17    9   10 ar
  18    9   11 1
  19   11   12 2
  20   11   13 2
  21   11   14 am
  22   14   15 1
  23   14   47 1
  24   15   16 ar
  25   15   20 ar
  26   16   17 ar
  27   16   48 1
  28   17   18 ar
  29   17   49 1
  30   18   19 ar
  31   18   21 1
  32   19   20 ar
  33   19   50 1
  34   20   51 1
  35   21   22 2
  36   21   23 am
  37   23   24 1
  38   23   28 1
  39   24   25 1
  40   24   52 1
  41   24   53 1
  42   25   26 1
  43   25   54 1
  44   25   55 1
  45   26   27 1
  46   26   29 1
  47   27   28 1
  48   27   56 1
  49   27   57 1
  50   28   58 1
  51   28   59 1
  52   29   30 1
  53   29   60 1
  54   29   61 1
  55   30   31 ar
  56   30   35 ar
  57   31   32 ar
  58   31   36 1
  59   32   33 ar
  60   32   62 1
  61   33   34 ar
  62   33   63 1
  63   34   35 ar
  64   34   40 1
  65   35   64 1
  66   36   37 1
  67   36   38 1
  68   36   39 1

#	End of record

