#	Name: ASD05143035
#	Creating user name:	WinNT
#	Creation time:	15. 06. 2019 20:57

#	Modifying user name:	WinNT
#	Modification time:	15. 06. 2019 20:57

#	Program:	/corina/corina34_cracker 3.40 0067  02.08.2006

@<TRIPOS>MOLECULE
ASD05143035
 147  150    0    0    0
SMALL
NO_CHARGES


@<TRIPOS>ATOM
   1 C1            -2.1187     5.3770     7.5182 C.2     
   2 C2            -1.6349     4.6364     8.7382 C.3     
   3 N3            -1.2297     5.9147     6.6597 N.am    
   4 O4            -3.3079     5.4848     7.3061 O.2     
   5 C5            -1.6999     6.6347     5.4737 C.3     
   6 C6            -2.5323     5.6924     4.6017 C.3     
   7 C7            -2.5481     7.8051     5.9000 C.2     
   8 C8            -1.6396     4.5708     4.0669 C.3     
   9 C9            -2.4720     3.6285     3.1950 C.3     
  10 N10           -1.6173     2.5545     2.6829 N.pl3   
  11 C11           -2.1488     1.5814     1.8700 C.2     
  12 N12           -1.3467     0.5735     1.3894 N.pl3   
  13 N13           -3.4132     1.6144     1.5550 N.2     
  14 O14           -3.0424     7.8244     7.0073 O.2     
  15 N15           -2.7575     8.8304     5.0506 N.am    
  16 C16           -3.5821     9.9682     5.4651 C.3     
  17 C17           -2.6796    11.1586     5.7956 C.3     
  18 C18           -1.5247    10.6927     6.6842 C.3     
  19 C19           -0.3825    10.2246     5.8199 C.2     
  20 O20           -0.5839     9.4959     4.8715 O.2     
  21 N21            0.8843    10.6364     6.1241 N.am    
  22 C22            1.9487    10.1265     5.2300 C.3     
  23 C23            2.1006    11.0890     4.0504 C.3     
  24 C24            2.7655    10.3605     2.8807 C.3     
  25 C25            3.7250    11.3132     2.1647 C.3     
  26 N26            3.6753    11.0384     0.7146 N.am    
  27 C27            5.1268    11.0941     2.6725 C.2     
  28 N28            5.5128    11.6405     3.8425 N.am    
  29 O29            5.9076    10.4259     2.0284 O.2     
  30 C30            2.8502    11.8278    -0.0259 C.2     
  31 O31            2.2056    12.7087     0.5027 O.2     
  32 C32            2.7479    11.5938    -1.5111 C.3     
  33 N33            1.5339    12.2774    -2.0134 N.am    
  34 C34            3.9846    12.1650    -2.2077 C.3     
  35 C35            0.4812    11.4583    -2.3092 C.2     
  36 O36            0.5726    10.2577    -2.1639 O.2     
  37 C37           -0.7959    12.0751    -2.8191 C.3     
  38 N38           -1.9231    11.1815    -2.4862 N.am    
  39 C39           -1.0081    13.4371    -2.1552 C.3     
  40 C40           -3.0285    11.7688    -1.9506 C.2     
  41 O41           -3.0581    12.9664    -1.7613 O.2     
  42 C42           -4.2147    10.9094    -1.5967 C.3     
  43 C43            3.9385    11.8220    -3.6744 C.2     
  44 C44            3.2416    12.5709    -4.7229 C.ar    
  45 C45            3.4811    11.8753    -5.9219 C.ar    
  46 N46            4.2658    10.7876    -5.6107 N.pl3   
  47 C47            4.5329    10.7754    -4.2687 C.2     
  48 C48            2.4649    13.7311    -4.7337 C.ar    
  49 C49            1.9407    14.1854    -5.9108 C.ar    
  50 C50            2.1737    13.5023    -7.0967 C.ar    
  51 C51            2.9377    12.3562    -7.1089 C.ar    
  52 N52           -4.8021    11.4086    -0.3325 N.am    
  53 C53           -3.7618     9.4593    -1.4147 C.3     
  54 C54           -4.9606     8.5900    -1.1350 C.ar    
  55 C55           -5.9886     8.5132    -2.0557 C.ar    
  56 C56           -7.0884     7.7157    -1.7990 C.ar    
  57 C57           -7.1598     6.9950    -0.6218 C.ar    
  58 C58           -6.1311     7.0711     0.2988 C.ar    
  59 C59           -5.0296     7.8649     0.0402 C.ar    
  60 C60           -4.5189    10.3439     4.3458 C.2     
  61 N61           -4.0004    10.8332     3.1861 N.am    
  62 O62           -5.7174    10.2119     4.4763 O.2     
  63 C63           -4.9667    11.1843     2.1262 C.3     
  64 C64           -5.1883    12.6981     2.1154 C.3     
  65 C65           -4.4103    10.7459     0.7961 C.2     
  66 C66           -5.8533    13.1255     3.4254 C.3     
  67 N67           -6.0661    14.5790     3.4150 N.3     
  68 O68           -3.6288     9.8209     0.7287 O.2     
  69 C69           -1.0199    13.2670    -0.6347 C.3     
  70 C70           -1.3788    14.6001     0.0248 C.3     
  71 N71           -1.3901    14.4373     1.4806 N.pl3   
  72 C72           -1.6884    15.5081     2.2898 C.2     
  73 N73           -1.9760    16.7316     1.7327 N.pl3   
  74 N74           -1.6985    15.3632     3.5851 N.2     
  75 N75           -8.1897     7.6342    -2.7846 N.pl3   
  76 O76           -8.1270     8.2697    -3.8218 O.2     
  77 O77           -9.1586     6.9317    -2.5585 O.2     
  78 H78           -1.0420     5.3077     9.3594 H       
  79 H79           -2.4915     4.2760     9.3078 H       
  80 H80           -1.0214     3.7899     8.4299 H       
  81 H81           -0.2784     5.8251     6.8272 H       
  82 H82           -0.8434     6.9951     4.9040 H       
  83 H83           -3.3378     5.2630     5.1973 H       
  84 H84           -2.9556     6.2497     3.7660 H       
  85 H85           -0.8341     5.0003     3.4713 H       
  86 H86           -1.2164     4.0135     4.9026 H       
  87 H87           -3.2776     3.1990     3.7905 H       
  88 H88           -2.8953     4.1858     2.3593 H       
  89 H89           -0.6763     2.5300     2.9173 H       
  90 H90           -0.4058     0.5489     1.6238 H       
  91 H91           -1.7218    -0.1131     0.8159 H       
  92 H92           -3.7882     0.9278     0.9816 H       
  93 H93           -2.3622     8.8150     4.1650 H       
  94 H94           -4.1610     9.6952     6.3473 H       
  95 H95           -2.2808    11.5794     4.8725 H       
  96 H96           -3.2583    11.9184     6.3208 H       
  97 H97           -1.1911    11.5204     7.3101 H       
  98 H98           -1.8616     9.8716     7.3170 H       
  99 H99            1.0731    11.2225     6.8736 H       
 100 H100           2.8894    10.0680     5.7776 H       
 101 H101           1.6748     9.1377     4.8622 H       
 102 H102           1.1174    11.4465     3.7442 H       
 103 H103           2.7183    11.9358     4.3495 H       
 104 H104           3.3203     9.5007     3.2565 H       
 105 H105           2.0007    10.0219     2.1817 H       
 106 H106           3.4236    12.3438     2.3517 H       
 107 H107           4.2032    10.3319     0.3109 H       
 108 H108           4.8884    12.1749     4.3576 H       
 109 H109           6.4152    11.4995     4.1693 H       
 110 H110           2.6742    10.5244    -1.7090 H       
 111 H111           1.4894    13.2399    -2.1249 H       
 112 H112           4.0010    13.2483    -2.0882 H       
 113 H113           4.8827    11.7367    -1.7624 H       
 114 H114          -0.7352    12.1992    -3.9003 H       
 115 H115          -1.8784    10.2249    -2.6409 H       
 116 H116          -0.1988    14.1098    -2.4393 H       
 117 H117          -1.9601    13.8559    -2.4814 H       
 118 H118          -4.9575    10.9658    -2.3924 H       
 119 H119           4.5849    10.1300    -6.2484 H       
 120 H120           5.1274    10.0298    -3.7617 H       
 121 H121           2.2788    14.2673    -3.8149 H       
 122 H122           1.3399    15.0829    -5.9187 H       
 123 H123           1.7522    13.8736    -8.0192 H       
 124 H124           3.1135    11.8321    -8.0367 H       
 125 H125          -5.4217    12.1545    -0.3073 H       
 126 H126          -3.2683     9.1159    -2.3240 H       
 127 H127          -3.0656     9.3983    -0.5783 H       
 128 H128          -5.9328     9.0764    -2.9755 H       
 129 H129          -8.0192     6.3726    -0.4210 H       
 130 H130          -6.1870     6.5082     1.2188 H       
 131 H131          -4.2261     7.9244     0.7594 H       
 132 H132          -3.0449    10.9459     3.0624 H       
 133 H133          -5.9137    10.6778     2.3130 H       
 134 H134          -4.2289    13.2051     2.0127 H       
 135 H135          -5.8320    12.9651     1.2772 H       
 136 H136          -6.8127    12.6186     3.5281 H       
 137 H137          -5.2097    12.8585     4.2636 H       
 138 H138          -6.6066    14.8596     2.6105 H       
 139 H139          -6.5045    14.8864     4.2703 H       
 140 H140          -1.7589    12.5147    -0.3590 H       
 141 H141          -0.0337    12.9485    -0.2971 H       
 142 H142          -0.6398    15.3525    -0.2510 H       
 143 H143          -2.3650    14.9187    -0.3129 H       
 144 H144          -1.1872    13.5741     1.8737 H       
 145 H145          -1.9685    16.8394     0.7687 H       
 146 H146          -2.1864    17.4871     2.3036 H       
 147 H147          -1.9089    16.1186     4.1560 H       
@<TRIPOS>BOND
   1    1    2 1
   2    1    3 am
   3    1    4 2
   4    2   78 1
   5    2   79 1
   6    2   80 1
   7    3    5 1
   8    3   81 1
   9    5    6 1
  10    5    7 1
  11    5   82 1
  12    6    8 1
  13    6   83 1
  14    6   84 1
  15    7   14 2
  16    7   15 am
  17    8    9 1
  18    8   85 1
  19    8   86 1
  20    9   10 1
  21    9   87 1
  22    9   88 1
  23   10   11 1
  24   10   89 1
  25   11   12 1
  26   11   13 2
  27   12   90 1
  28   12   91 1
  29   13   92 1
  30   15   16 1
  31   15   93 1
  32   16   17 1
  33   16   60 1
  34   16   94 1
  35   17   18 1
  36   17   95 1
  37   17   96 1
  38   18   19 1
  39   18   97 1
  40   18   98 1
  41   19   20 2
  42   19   21 am
  43   21   22 1
  44   21   99 1
  45   22   23 1
  46   22  100 1
  47   22  101 1
  48   23   24 1
  49   23  102 1
  50   23  103 1
  51   24   25 1
  52   24  104 1
  53   24  105 1
  54   25   26 1
  55   25   27 1
  56   25  106 1
  57   26   30 am
  58   26  107 1
  59   27   28 am
  60   27   29 2
  61   28  108 1
  62   28  109 1
  63   30   31 2
  64   30   32 1
  65   32   33 1
  66   32   34 1
  67   32  110 1
  68   33   35 am
  69   33  111 1
  70   34   43 1
  71   34  112 1
  72   34  113 1
  73   35   36 2
  74   35   37 1
  75   37   38 1
  76   37   39 1
  77   37  114 1
  78   38   40 am
  79   38  115 1
  80   39   69 1
  81   39  116 1
  82   39  117 1
  83   40   41 2
  84   40   42 1
  85   42   52 1
  86   42   53 1
  87   42  118 1
  88   43   44 1
  89   43   47 2
  90   44   45 ar
  91   44   48 ar
  92   45   46 1
  93   45   51 ar
  94   46   47 1
  95   46  119 1
  96   47  120 1
  97   48   49 ar
  98   48  121 1
  99   49   50 ar
 100   49  122 1
 101   50   51 ar
 102   50  123 1
 103   51  124 1
 104   52   65 am
 105   52  125 1
 106   53   54 1
 107   53  126 1
 108   53  127 1
 109   54   55 ar
 110   54   59 ar
 111   55   56 ar
 112   55  128 1
 113   56   57 ar
 114   56   75 1
 115   57   58 ar
 116   57  129 1
 117   58   59 ar
 118   58  130 1
 119   59  131 1
 120   60   61 am
 121   60   62 2
 122   61   63 1
 123   61  132 1
 124   63   64 1
 125   63   65 1
 126   63  133 1
 127   64   66 1
 128   64  134 1
 129   64  135 1
 130   65   68 2
 131   66   67 1
 132   66  136 1
 133   66  137 1
 134   67  138 1
 135   67  139 1
 136   69   70 1
 137   69  140 1
 138   69  141 1
 139   70   71 1
 140   70  142 1
 141   70  143 1
 142   71   72 1
 143   71  144 1
 144   72   73 1
 145   72   74 2
 146   73  145 1
 147   73  146 1
 148   74  147 1
 149   75   76 2
 150   75   77 2

#	End of record

