#	Name: ASD03091969
#	Creating user name:	WinNT
#	Creation time:	15. 06. 2019 20:31

#	Modifying user name:	WinNT
#	Modification time:	15. 06. 2019 20:31

#	Program:	/corina/corina34_cracker 3.40 0067  02.08.2006

@<TRIPOS>MOLECULE
ASD03091969
  58   61    0    0    0
SMALL
NO_CHARGES


@<TRIPOS>ATOM
   1 C1            -0.0311     1.4814    -0.1990 C.ar    
   2 C2            -1.2536     2.1231    -0.1087 C.ar    
   3 C3            -2.4198     1.3814    -0.1094 C.ar    
   4 C4            -2.3772    -0.0004    -0.2000 C.ar    
   5 C5            -1.1661    -0.6564    -0.2907 C.ar    
   6 C6             0.0136     0.0811    -0.2905 C.ar    
   7 O7             1.1358     2.1708    -0.1962 O.3     
   8 C8             2.2630     1.5455     0.4175 C.3     
   9 N9             2.4247     0.1728    -0.0626 N.am    
  10 C10            1.3374    -0.5686    -0.3793 C.2     
  11 C11           -3.6598    -0.7916    -0.1989 C.3     
  12 C12           -3.3529    -2.2463    -0.4451 C.2     
  13 C13           -3.2119    -3.0804     0.5793 C.2     
  14 C14           -3.2145    -2.7491    -1.8214 C.2     
  15 C15           -3.3294    -4.0505    -2.0629 C.2     
  16 C16           -3.6035    -5.0086    -0.9341 C.3     
  17 C17           -2.9021    -4.5336     0.3350 C.3     
  18 O18            1.4465    -1.7291    -0.7253 O.2     
  19 C19            3.7659    -0.4003    -0.2007 C.3     
  20 C20            3.8858    -1.6416     0.6872 C.3     
  21 O21            5.1747    -2.2319     0.5069 O.3     
  22 C22            4.0035    -0.8010    -1.6600 C.3     
  23 C23            5.3768    -1.4692    -1.7773 C.3     
  24 C24            5.4345    -2.6692    -0.8285 C.3     
  25 O25            3.9661     0.3633    -2.4876 O.3     
  26 C26           -3.7502     2.0823    -0.0103 C.3     
  27 C27           -4.1909     2.1353     1.4539 C.3     
  28 O28           -5.0114    -5.0738    -0.6982 O.3     
  29 C29           -5.6820    -6.0810    -1.4583 C.3     
  30 H30           -1.2963     3.1999    -0.0375 H       
  31 H31           -1.1346    -1.7336    -0.3609 H       
  32 H32            3.1615     2.1157     0.1817 H       
  33 H33            2.1212     1.5327     1.4982 H       
  34 H34           -4.1531    -0.6827     0.7670 H       
  35 H35           -4.3163    -0.4205    -0.9860 H       
  36 H36           -3.3193    -2.7152     1.5900 H       
  37 H37           -3.0197    -2.0627    -2.6320 H       
  38 H38           -3.2263    -4.4222    -3.0717 H       
  39 H39           -3.2365    -5.9991    -1.2027 H       
  40 H40           -1.8252    -4.6606     0.2246 H       
  41 H41           -3.2501    -5.1253     1.1818 H       
  42 H42            4.5099     0.3373     0.1002 H       
  43 H43            3.7600    -1.3552     1.7313 H       
  44 H44            3.1147    -2.3612     0.4120 H       
  45 H45            3.2296    -1.5001    -1.9767 H       
  46 H46            5.5311    -1.8073    -2.8020 H       
  47 H47            6.1541    -0.7541    -1.5078 H       
  48 H48            6.4244    -3.1231    -0.8762 H       
  49 H49            4.6837    -3.4023    -1.1234 H       
  50 H50            4.1094     0.1831    -3.4268 H       
  51 H51           -3.6564     3.0965    -0.3984 H       
  52 H52           -4.4924     1.5372    -0.5935 H       
  53 H53           -5.1532     2.6423     1.5257 H       
  54 H54           -4.2847     1.1211     1.8421 H       
  55 H55           -3.4487     2.6804     2.0372 H       
  56 H56           -6.7461    -6.0660    -1.2225 H       
  57 H57           -5.5427    -5.8866    -2.5217 H       
  58 H58           -5.2687    -7.0587    -1.2105 H       
@<TRIPOS>BOND
   1    1    6 ar
   2    1    7 1
   3    1    2 ar
   4    2    3 ar
   5    2   30 1
   6    3    4 ar
   7    3   26 1
   8    4    5 ar
   9    4   11 1
  10    5    6 ar
  11    5   31 1
  12    6   10 1
  13    7    8 1
  14    8    9 1
  15    8   32 1
  16    8   33 1
  17    9   10 am
  18    9   19 1
  19   10   18 2
  20   11   12 1
  21   11   34 1
  22   11   35 1
  23   12   14 1
  24   12   13 2
  25   13   17 1
  26   13   36 1
  27   14   15 2
  28   14   37 1
  29   15   16 1
  30   15   38 1
  31   16   17 1
  32   16   28 1
  33   16   39 1
  34   17   40 1
  35   17   41 1
  36   19   22 1
  37   19   20 1
  38   19   42 1
  39   20   21 1
  40   20   43 1
  41   20   44 1
  42   21   24 1
  43   22   23 1
  44   22   25 1
  45   22   45 1
  46   23   24 1
  47   23   46 1
  48   23   47 1
  49   24   48 1
  50   24   49 1
  51   25   50 1
  52   26   27 1
  53   26   51 1
  54   26   52 1
  55   27   53 1
  56   27   54 1
  57   27   55 1
  58   28   29 1
  59   29   56 1
  60   29   57 1
  61   29   58 1

#	End of record

