#	Name: ASD01880117
#	Creating user name:	WinNT
#	Creation time:	15. 06. 2019 19:40

#	Modifying user name:	WinNT
#	Modification time:	15. 06. 2019 19:40

#	Program:	/corina/corina34_cracker 3.40 0067  02.08.2006

@<TRIPOS>MOLECULE
ASD01880117
  64   65    0    0    0
SMALL
NO_CHARGES


@<TRIPOS>ATOM
   1 C1            -0.0167     1.3832     0.0096 C.ar    
   2 C2             0.0021    -0.0041     0.0020 C.ar    
   3 C3            -1.1903    -0.7238     0.0096 C.ar    
   4 C4            -2.3894    -0.0733     0.0250 C.ar    
   5 C5            -2.4280     1.3279     0.0333 C.ar    
   6 C6            -1.2255     2.0574     0.0306 C.ar    
   7 C7            -3.7142     2.0288     0.0499 C.2     
   8 C8            -5.0003     1.2434     0.0580 C.3     
   9 C9            -6.1872     2.2086     0.0750 C.3     
  10 C10           -6.2111     3.0108    -1.2276 C.3     
  11 C11           -7.4883     1.4147     0.2090 C.3     
  12 O12           -1.2502     3.4132     0.0391 O.3     
  13 O13            1.1880    -0.6629    -0.0133 O.3     
  14 C14            1.1367    -2.0909    -0.0205 C.3     
  15 C15            2.5599    -2.6523    -0.0376 C.3     
  16 C16            2.5050    -4.1813    -0.0453 C.3     
  17 C17            3.9282    -4.7426    -0.0625 C.3     
  18 O18            3.8770    -6.1707    -0.0696 O.3     
  19 C19            5.0648    -6.8306    -0.0850 C.ar    
  20 C20            5.0884    -8.2165    -0.0926 C.ar    
  21 C21            6.3019    -8.8869    -0.1083 C.ar    
  22 C22            7.4895    -8.1694    -0.1162 C.ar    
  23 C23            7.4635    -6.7877    -0.1081 C.ar    
  24 C24            6.2555    -6.1174    -0.0987 C.ar    
  25 C25            1.2775     2.1551     0.0014 C.3     
  26 O26            6.3282   -10.2456    -0.1154 O.3     
  27 C27            9.1804    -9.2462    -1.5758 C.3     
  28 C28            8.8089    -8.8975    -0.1332 C.3     
  29 C29           10.4998    -9.9743    -1.5928 C.2     
  30 O30           11.0269   -10.3810    -2.7583 O.3     
  31 O31           11.0831   -10.1919    -0.5573 O.2     
  32 O32           -3.7440     3.2418     0.0571 O.2     
  33 H33           -1.1656    -1.8035     0.0028 H       
  34 H34           -3.3097    -0.6384     0.0304 H       
  35 H35           -5.0512     0.6206    -0.8351 H       
  36 H36           -5.0339     0.6104     0.9447 H       
  37 H37           -6.0890     2.8904     0.9198 H       
  38 H38           -6.3093     2.3291    -2.0724 H       
  39 H39           -7.0567     3.6985    -1.2154 H       
  40 H40           -5.2842     3.5764    -1.3230 H       
  41 H41           -7.4713     0.8432     1.1370 H       
  42 H42           -8.3339     2.1024     0.2211 H       
  43 H43           -7.5865     0.7330    -0.6358 H       
  44 H44           -1.2520     3.8011     0.9249 H       
  45 H45            0.6190    -2.4404     0.8728 H       
  46 H46            0.6013    -2.4309    -0.9070 H       
  47 H47            3.0776    -2.3028    -0.9310 H       
  48 H48            3.0953    -2.3124     0.8489 H       
  49 H49            1.9874    -4.5307     0.8480 H       
  50 H50            1.9697    -4.5212    -0.9318 H       
  51 H51            4.4459    -4.3931    -0.9558 H       
  52 H52            4.4636    -4.4027     0.8241 H       
  53 H53            4.1629    -8.7732    -0.0861 H       
  54 H54            8.3889    -6.2310    -0.1139 H       
  55 H55            6.2377    -5.0376    -0.0924 H       
  56 H56            1.5797     2.3468    -1.0281 H       
  57 H57            1.1386     3.1028     0.5217 H       
  58 H58            2.0503     1.5741     0.5048 H       
  59 H59            6.3269   -10.6344    -1.0008 H       
  60 H60            8.4080    -9.8838    -2.0059 H       
  61 H61            9.2632    -8.3305    -2.1612 H       
  62 H62            9.5813    -8.2599     0.2969 H       
  63 H63            8.7261    -9.8132     0.4522 H       
  64 H64           11.8750   -10.8439    -2.7188 H       
@<TRIPOS>BOND
   1    1    2 ar
   2    1   25 1
   3    1    6 ar
   4    2    3 ar
   5    2   13 1
   6    3    4 ar
   7    3   33 1
   8    4    5 ar
   9    4   34 1
  10    5    6 ar
  11    5    7 1
  12    6   12 1
  13    7    8 1
  14    7   32 2
  15    8    9 1
  16    8   35 1
  17    8   36 1
  18    9   10 1
  19    9   11 1
  20    9   37 1
  21   10   38 1
  22   10   39 1
  23   10   40 1
  24   11   41 1
  25   11   42 1
  26   11   43 1
  27   12   44 1
  28   13   14 1
  29   14   15 1
  30   14   45 1
  31   14   46 1
  32   15   16 1
  33   15   47 1
  34   15   48 1
  35   16   17 1
  36   16   49 1
  37   16   50 1
  38   17   18 1
  39   17   51 1
  40   17   52 1
  41   18   19 1
  42   19   20 ar
  43   19   24 ar
  44   20   21 ar
  45   20   53 1
  46   21   22 ar
  47   21   26 1
  48   22   23 ar
  49   22   28 1
  50   23   24 ar
  51   23   54 1
  52   24   55 1
  53   25   56 1
  54   25   57 1
  55   25   58 1
  56   26   59 1
  57   27   28 1
  58   27   29 1
  59   27   60 1
  60   27   61 1
  61   28   62 1
  62   28   63 1
  63   29   30 1
  64   29   31 2
  65   30   64 1

#	End of record

