#	Name: ASD04910182
#	Creating user name:	WinNT
#	Creation time:	15. 06. 2019 20:55

#	Modifying user name:	WinNT
#	Modification time:	15. 06. 2019 20:55

#	Program:	/corina/corina34_cracker 3.40 0067  02.08.2006

@<TRIPOS>MOLECULE
ASD04910182
  64   66    0    0    0
SMALL
NO_CHARGES


@<TRIPOS>ATOM
   1 C1            -0.2695     1.4346     0.2408 C.2     
   2 C2            -0.2091    -0.0707     0.2046 C.3     
   3 C3             1.2518    -0.5212     0.1429 C.3     
   4 O4             0.7512     2.0809     0.2194 O.2     
   5 O5            -1.4574     2.0576     0.2912 O.3     
   6 C6             2.5030    -2.6100     0.0516 C.2     
   7 C7             2.5623    -4.0869     0.0161 C.ar    
   8 C8             3.7957    -4.7377    -0.0421 C.ar    
   9 C9             3.8440    -6.1160    -0.0744 C.ar    
  10 C10            2.6733    -6.8531    -0.0498 C.ar    
  11 C11            1.4474    -6.2141     0.0079 C.ar    
  12 C12            1.3853    -4.8365     0.0465 C.ar    
  13 O13            3.5298    -1.9599     0.0301 O.2     
  14 N14            1.3105    -1.9846     0.1078 N.am    
  15 C15            2.7337    -8.3584    -0.0864 C.3     
  16 C16            2.5543    -8.9106     1.3291 C.3     
  17 C17            2.7396   -10.4292     1.3114 C.3     
  18 C18            2.5602   -10.9814     2.7270 C.3     
  19 O19            1.6915    -8.8566    -0.9276 O.3     
  20 C20            1.9543    -9.9902    -1.6303 C.ar    
  21 C21            3.2167   -10.5632    -1.5753 C.ar    
  22 C22            3.4841   -11.7148    -2.2884 C.ar    
  23 C23            2.4894   -12.2995    -3.0607 C.ar    
  24 C24            1.2263   -11.7258    -3.1154 C.ar    
  25 C25            0.9585   -10.5771    -2.3977 C.ar    
  26 N26            2.7607   -13.4694    -3.7858 N.pl3   
  27 N27            3.9835   -14.1519    -3.8223 N.2     
  28 C28            3.8480   -15.1928    -4.6043 C.2     
  29 C29            2.5365   -15.2072    -5.0908 C.2     
  30 C30            1.8866   -14.1410    -4.5686 C.2     
  31 C31            4.9204   -16.2016    -4.9257 C.3     
  32 C32            4.7936   -17.3990    -3.9817 C.3     
  33 C33            4.7598   -16.6734    -6.3723 C.3     
  34 H34           -0.6763    -0.4748     1.1027 H       
  35 H35           -0.7390    -0.4346    -0.6757 H       
  36 H36            1.7189    -0.1172    -0.7552 H       
  37 H37            1.7817    -0.1573     1.0232 H       
  38 H38           -1.4456     3.0243     0.3128 H       
  39 H39            4.7102    -4.1635    -0.0621 H       
  40 H40            4.7977    -6.6208    -0.1195 H       
  41 H41            0.5373    -6.7953     0.0269 H       
  42 H42            0.4280    -4.3391     0.0961 H       
  43 H43            0.4911    -2.5034     0.1250 H       
  44 H44            3.7001    -8.6738    -0.4797 H       
  45 H45            3.2953    -8.4619     1.9908 H       
  46 H46            1.5536    -8.6708     1.6886 H       
  47 H47            1.9986   -10.8780     0.6498 H       
  48 H48            3.7403   -10.6690     0.9520 H       
  49 H49            3.3012   -10.5327     3.3886 H       
  50 H50            1.5595   -10.7416     3.0865 H       
  51 H51            2.6922   -12.0633     2.7144 H       
  52 H52            3.9905   -10.1081    -0.9749 H       
  53 H53            4.4669   -12.1606    -2.2459 H       
  54 H54            0.4523   -12.1802    -3.7159 H       
  55 H55           -0.0253   -10.1332    -2.4366 H       
  56 H56            2.1155   -15.9421    -5.7610 H       
  57 H57            0.8557   -13.8732    -4.7474 H       
  58 H58            5.9008   -15.7422    -4.8001 H       
  59 H59            3.8132   -17.8585    -4.1073 H       
  60 H60            5.5693   -18.1287    -4.2142 H       
  61 H61            4.9080   -17.0629    -2.9511 H       
  62 H62            4.8501   -15.8204    -7.0448 H       
  63 H63            5.5354   -17.4031    -6.6047 H       
  64 H64            3.7794   -17.1328    -6.4978 H       
@<TRIPOS>BOND
   1    1    2 1
   2    1    4 2
   3    1    5 1
   4    2    3 1
   5    2   34 1
   6    2   35 1
   7    3   14 1
   8    3   36 1
   9    3   37 1
  10    5   38 1
  11    6    7 1
  12    6   13 2
  13    6   14 am
  14    7    8 ar
  15    7   12 ar
  16    8    9 ar
  17    8   39 1
  18    9   10 ar
  19    9   40 1
  20   10   11 ar
  21   10   15 1
  22   11   12 ar
  23   11   41 1
  24   12   42 1
  25   14   43 1
  26   15   16 1
  27   15   19 1
  28   15   44 1
  29   16   17 1
  30   16   45 1
  31   16   46 1
  32   17   18 1
  33   17   47 1
  34   17   48 1
  35   18   49 1
  36   18   50 1
  37   18   51 1
  38   19   20 1
  39   20   21 ar
  40   20   25 ar
  41   21   22 ar
  42   21   52 1
  43   22   23 ar
  44   22   53 1
  45   23   24 ar
  46   23   26 1
  47   24   25 ar
  48   24   54 1
  49   25   55 1
  50   26   27 1
  51   26   30 1
  52   27   28 2
  53   28   29 1
  54   28   31 1
  55   29   30 2
  56   29   56 1
  57   30   57 1
  58   31   32 1
  59   31   33 1
  60   31   58 1
  61   32   59 1
  62   32   60 1
  63   32   61 1
  64   33   62 1
  65   33   63 1
  66   33   64 1

#	End of record

