#	Name: ASD08150223
#	Creating user name:	WinNT
#	Creation time:	15. 06. 2019 21:15

#	Modifying user name:	WinNT
#	Modification time:	15. 06. 2019 21:15

#	Program:	/corina/corina34_cracker 3.40 0067  02.08.2006

@<TRIPOS>MOLECULE
ASD08150223
  57   61    0    0    0
SMALL
NO_CHARGES


@<TRIPOS>ATOM
   1 N1             0.6932     1.0092    -0.0245 N.2     
   2 C2             0.4878    -0.2549     0.1889 C.2     
   3 N3             1.4876    -1.1426     0.4412 N.am    
   4 C4             2.7772    -0.7340     0.4818 C.2     
   5 C5             3.0432     0.6922     0.2441 C.ar    
   6 C6             4.3352     1.2140     0.2646 C.ar    
   7 C7             4.5277     2.5588     0.0357 C.ar    
   8 C8             3.4470     3.3946    -0.2144 C.ar    
   9 C9             2.1629     2.8990    -0.2390 C.ar    
  10 C10            1.9417     1.5393    -0.0099 C.ar    
  11 O11            3.6817    -1.5169     0.7068 O.2     
  12 C12            1.1794    -2.4910     0.6613 C.ar    
  13 C13            0.9694    -2.9549     1.9534 C.ar    
  14 C14            0.5707    -5.1549     1.0962 C.ar    
  15 C15            1.0777    -3.3656    -0.4122 C.ar    
  16 C16            0.6657    -4.2850     2.1672 C.ar    
  17 C17            0.7737    -4.6949    -0.1918 C.ar    
  18 C18            1.0732    -2.0078     3.1211 C.3     
  19 C19            5.5131     0.3140     0.5357 C.3     
  20 C20           -0.9299    -0.7648     0.1560 C.3     
  21 C21           -1.8986     0.4144     0.2661 C.3     
  22 C22           -3.3328    -0.1107     0.3582 C.3     
  23 N23           -1.1648    -1.4736    -1.1044 N.pl3   
  24 N24           -1.8319    -3.1075    -3.6185 N.2     
  25 C25           -2.3793    -4.0237    -4.3621 C.2     
  26 N26           -3.2067    -4.8032    -3.6074 N.pl3   
  27 C27           -3.1582    -4.3287    -2.3210 C.ar    
  28 N28           -3.7346    -4.6719    -1.1734 N.ar    
  29 C29           -3.4785    -3.9984    -0.0636 C.ar    
  30 N30           -2.6473    -2.9645    -0.0385 N.ar    
  31 C31           -2.0288    -2.5537    -1.1401 C.ar    
  32 C32           -2.2714    -3.2396    -2.3427 C.ar    
  33 N33           -4.0991    -4.3864     1.1124 N.pl3   
  34 H34            5.5276     2.9667     0.0512 H       
  35 H35            3.6161     4.4464    -0.3914 H       
  36 H36            1.3304     3.5587    -0.4341 H       
  37 H37            0.3335    -6.1947     1.2659 H       
  38 H38            1.2357    -3.0069    -1.4186 H       
  39 H39            0.5026    -4.6464     3.1718 H       
  40 H40            0.6992    -5.3767    -1.0261 H       
  41 H41            0.0969    -1.5643     3.3171 H       
  42 H42            1.4079    -2.5538     4.0031 H       
  43 H43            1.7897    -1.2204     2.8876 H       
  44 H44            5.8162    -0.1763    -0.3894 H       
  45 H45            6.3424     0.9071     0.9212 H       
  46 H46            5.2327    -0.4398     1.2714 H       
  47 H47           -1.0905    -1.4462     0.9914 H       
  48 H48           -1.6657     0.9937     1.1596 H       
  49 H49           -1.7999     1.0492    -0.6144 H       
  50 H50           -3.4315    -0.7455     1.2388 H       
  51 H51           -4.0229     0.7294     0.4367 H       
  52 H52           -3.5657    -0.6900    -0.5352 H       
  53 H53           -0.7146    -1.1858    -1.9139 H       
  54 H54           -2.2048    -4.1490    -5.4205 H       
  55 H55           -3.7329    -5.5546    -3.9225 H       
  56 H56           -4.7095    -5.1402     1.1129 H       
  57 H57           -3.9232    -3.9042     1.9355 H       
@<TRIPOS>BOND
   1    1    2 2
   2    1   10 1
   3    2    3 1
   4    2   20 1
   5    3    4 am
   6    3   12 1
   7    4    5 1
   8    4   11 2
   9    5    6 ar
  10    5   10 ar
  11    6    7 ar
  12    6   19 1
  13    7    8 ar
  14    7   34 1
  15    8    9 ar
  16    8   35 1
  17    9   10 ar
  18    9   36 1
  19   12   13 ar
  20   12   15 ar
  21   13   16 ar
  22   13   18 1
  23   14   16 ar
  24   14   17 ar
  25   14   37 1
  26   15   17 ar
  27   15   38 1
  28   16   39 1
  29   17   40 1
  30   18   41 1
  31   18   42 1
  32   18   43 1
  33   19   44 1
  34   19   45 1
  35   19   46 1
  36   20   21 1
  37   20   23 1
  38   20   47 1
  39   21   22 1
  40   21   48 1
  41   21   49 1
  42   22   50 1
  43   22   51 1
  44   22   52 1
  45   23   31 1
  46   23   53 1
  47   24   25 2
  48   24   32 1
  49   25   26 1
  50   25   54 1
  51   26   27 1
  52   26   55 1
  53   27   28 ar
  54   27   32 ar
  55   28   29 ar
  56   29   30 ar
  57   29   33 1
  58   30   31 ar
  59   31   32 ar
  60   33   56 1
  61   33   57 1

#	End of record

