#	Name: ASD01914254
#	Creating user name:	WinNT
#	Creation time:	15. 06. 2019 20:03

#	Modifying user name:	WinNT
#	Modification time:	15. 06. 2019 20:03

#	Program:	/corina/corina34_cracker 3.40 0067  02.08.2006

@<TRIPOS>MOLECULE
ASD01914254
  36   38    0    0    0
SMALL
NO_CHARGES


@<TRIPOS>ATOM
   1 C1            -0.0168     1.3881     0.0097 C.ar    
   2 C2             0.0021    -0.0041     0.0020 C.ar    
   3 C3             1.2179    -0.6659    -0.0131 C.ar    
   4 C4             2.3826     0.0855    -0.0202 C.ar    
   5 C5             2.2950     1.4761    -0.0119 C.ar    
   6 N6             1.1106     2.0794     0.0026 N.ar    
   7 N7            -1.2341     2.0587     0.0190 N.pl3   
   8 C8            -2.4879     1.3010     0.0208 C.3     
   9 C9             3.4918     2.2625    -0.0191 C.1     
  10 C10            4.4729     2.9072    -0.0250 C.1     
  11 C11            5.7031     3.7155    -0.0323 C.3     
  12 C12            5.3372     5.2011    -0.0209 C.3     
  13 N13            7.1470     6.4027    -1.1040 N.2     
  14 N14            6.5616     6.0056    -0.0282 N.pl3   
  15 N15            7.1670     6.3919     1.0404 N.2     
  16 C16            8.2329     7.0969     0.6970 C.ar    
  17 C17            8.2192     7.1043    -0.7734 C.ar    
  18 C18            9.2427     7.7845    -1.4564 C.ar    
  19 C19           10.2151     8.4154    -0.7479 C.ar    
  20 C20           10.2284     8.4079     0.6474 C.ar    
  21 C21            9.2691     7.7701     1.3676 C.ar    
  22 H22           -0.9226    -0.5621     0.0082 H       
  23 H23            1.2581    -1.7451    -0.0189 H       
  24 H24            3.3467    -0.4012    -0.0316 H       
  25 H25           -1.2535     3.0285     0.0244 H       
  26 H26           -2.5373     0.6782    -0.8723 H       
  27 H27           -2.5289     0.6685     0.9076 H       
  28 H28           -3.3304     1.9926     0.0286 H       
  29 H29            6.2973     3.4809     0.8508 H       
  30 H30            6.2804     3.4904    -0.9291 H       
  31 H31            4.7430     5.4358    -0.9040 H       
  32 H32            4.7599     5.4262     0.8759 H       
  33 H33            9.2561     7.8049    -2.5361 H       
  34 H34           10.9986     8.9360    -1.2784 H       
  35 H35           11.0219     8.9229     1.1685 H       
  36 H36            9.3024     7.7800     2.4471 H       
@<TRIPOS>BOND
   1    1    2 ar
   2    1    6 ar
   3    1    7 1
   4    2    3 ar
   5    2   22 1
   6    3    4 ar
   7    3   23 1
   8    4    5 ar
   9    4   24 1
  10    5    6 ar
  11    5    9 1
  12    7    8 1
  13    7   25 1
  14    8   26 1
  15    8   27 1
  16    8   28 1
  17    9   10 3
  18   10   11 1
  19   11   12 1
  20   11   29 1
  21   11   30 1
  22   12   14 1
  23   12   31 1
  24   12   32 1
  25   13   14 1
  26   13   17 2
  27   14   15 1
  28   15   16 2
  29   16   17 ar
  30   16   21 ar
  31   17   18 ar
  32   18   19 ar
  33   18   33 1
  34   19   20 ar
  35   19   34 1
  36   20   21 ar
  37   20   35 1
  38   21   36 1

#	End of record

