#	Name: ASD03330340
#	Creating user name:	WinNT
#	Creation time:	15. 06. 2019 20:37

#	Modifying user name:	WinNT
#	Modification time:	15. 06. 2019 20:37

#	Program:	/corina/corina34_cracker 3.40 0067  02.08.2006

@<TRIPOS>MOLECULE
ASD03330340
  63   66    0    0    0
SMALL
NO_CHARGES


@<TRIPOS>ATOM
   1 C1            -0.9149     1.1285     0.9371 C.3     
   2 N2            -0.8574    -0.3378     0.8383 N.am    
   3 C3            -0.0109    -0.9284    -0.2159 C.3     
   4 C4             1.2804    -0.1477    -0.2317 C.2     
   5 N5             1.4758     1.0129     0.4434 N.pl3   
   6 C6             0.4759     1.6672     1.2905 C.3     
   7 C7             2.4333    -0.4361    -0.8875 C.2     
   8 N8             3.3173     0.5498    -0.6140 N.2     
   9 C9             2.7484     1.4246     0.1833 C.2     
  10 C10            3.3831     2.6528     0.7103 C.ar    
  11 C11            4.5621     3.1325     0.1392 C.ar    
  12 C12            2.6775    -1.6115    -1.7423 C.2     
  13 O13            1.7976    -2.4338    -1.9114 O.2     
  14 C14            4.1189    -2.9436    -3.1863 C.3     
  15 N15            3.8761    -1.7751    -2.3365 N.am    
  16 C16           -1.5566    -1.1186     1.6857 C.2     
  17 O17           -2.1555    -0.6188     2.6198 O.2     
  18 C18            5.1487     4.2787     0.6350 C.ar    
  19 C19            4.5703     4.9520     1.6962 C.ar    
  20 C20            3.4012     4.4814     2.2669 C.ar    
  21 C21            2.8019     3.3393     1.7768 C.ar    
  22 C22            5.5962    -3.2388    -3.2242 C.2     
  23 C23            3.6197    -2.6560    -4.6036 C.3     
  24 C24           -1.5956    -2.5704     1.4820 C.2     
  25 N25            6.0264    -4.5014    -3.4171 N.am    
  26 O26            6.3980    -2.3402    -3.0813 O.2     
  27 C27            7.4573    -4.8070    -3.3442 C.3     
  28 C28            4.2747    -1.3754    -5.1251 C.3     
  29 C29            3.9851    -3.8254    -5.5201 C.3     
  30 C30            2.1000    -2.4797    -4.5831 C.3     
  31 C31           -2.1537    -3.4847     2.3289 C.2     
  32 C32           -1.9643    -4.7459     1.7427 C.2     
  33 C33           -1.3073    -4.5487     0.5785 C.2     
  34 O34           -1.0917    -3.2362     0.4223 O.3     
  35 H35           -1.2347     1.5453    -0.0180 H       
  36 H36           -1.6238     1.4133     1.7146 H       
  37 H37            0.1901    -1.9754     0.0112 H       
  38 H38           -0.5079    -0.8450    -1.1824 H       
  39 H39            0.5033     2.7436     1.1210 H       
  40 H40            0.6924     1.4571     2.3379 H       
  41 H41            5.0148     2.6077    -0.6890 H       
  42 H42            3.5867    -3.8043    -2.7812 H       
  43 H43            4.5779    -1.1193    -2.2017 H       
  44 H44            6.0616     4.6509     0.1940 H       
  45 H45            5.0335     5.8485     2.0809 H       
  46 H46            2.9545     5.0114     3.0951 H       
  47 H47            1.8892     2.9729     2.2232 H       
  48 H48            5.3885    -5.2079    -3.6041 H       
  49 H49            7.8340    -4.5487    -2.3545 H       
  50 H50            7.6114    -5.8707    -3.5254 H       
  51 H51            7.9912    -4.2288    -4.0984 H       
  52 H52            5.3573    -1.5010    -5.1397 H       
  53 H53            3.9190    -1.1706    -6.1348 H       
  54 H54            4.0143    -0.5423    -4.4721 H       
  55 H55            3.6123    -4.7548    -5.0895 H       
  56 H56            3.5346    -3.6730    -6.5009 H       
  57 H57            5.0688    -3.8816    -5.6229 H       
  58 H58            1.8397    -1.6467    -3.9302 H       
  59 H59            1.7443    -2.2749    -5.5929 H       
  60 H60            1.6334    -3.3921    -4.2117 H       
  61 H61           -2.6452    -3.2775     3.2680 H       
  62 H62           -2.2837    -5.6954     2.1463 H       
  63 H63           -1.0086    -5.3219    -0.1139 H       
@<TRIPOS>BOND
   1    1    2 1
   2    1    6 1
   3    1   35 1
   4    1   36 1
   5    2    3 1
   6    2   16 am
   7    3    4 1
   8    3   37 1
   9    3   38 1
  10    4    5 1
  11    4    7 2
  12    5    6 1
  13    5    9 1
  14    6   39 1
  15    6   40 1
  16    7    8 1
  17    7   12 1
  18    8    9 2
  19    9   10 1
  20   10   11 ar
  21   10   21 ar
  22   11   18 ar
  23   11   41 1
  24   12   13 2
  25   12   15 am
  26   14   15 1
  27   14   22 1
  28   14   23 1
  29   14   42 1
  30   15   43 1
  31   16   17 2
  32   16   24 1
  33   18   19 ar
  34   18   44 1
  35   19   20 ar
  36   19   45 1
  37   20   21 ar
  38   20   46 1
  39   21   47 1
  40   22   25 am
  41   22   26 2
  42   23   28 1
  43   23   29 1
  44   23   30 1
  45   24   31 2
  46   24   34 1
  47   25   27 1
  48   25   48 1
  49   27   49 1
  50   27   50 1
  51   27   51 1
  52   28   52 1
  53   28   53 1
  54   28   54 1
  55   29   55 1
  56   29   56 1
  57   29   57 1
  58   30   58 1
  59   30   59 1
  60   30   60 1
  61   31   32 1
  62   31   61 1
  63   32   33 2
  64   32   62 1
  65   33   34 1
  66   33   63 1

#	End of record

