#	Name: ASD05430723
#	Creating user name:	WinNT
#	Creation time:	15. 06. 2019 21:00

#	Modifying user name:	WinNT
#	Modification time:	15. 06. 2019 21:00

#	Program:	/corina/corina34_cracker 3.40 0067  02.08.2006

@<TRIPOS>MOLECULE
ASD05430723
  55   59    0    0    0
SMALL
NO_CHARGES


@<TRIPOS>ATOM
   1 C1            -0.0170     1.3991     0.0097 C.2     
   2 C2             0.0021    -0.0041     0.0020 C.2     
   3 C3            -1.2203    -0.7024     0.0103 C.2     
   4 N4            -2.3558    -0.0660     0.0246 N.2     
   5 N5            -2.4324     1.3289     0.0328 N.am    
   6 C6            -1.3096     2.0808     0.0311 C.2     
   7 O7            -1.3734     3.2985     0.0387 O.2     
   8 C8            -3.7431     1.9831     0.0483 C.3     
   9 C9            -4.5329     1.5722    -1.1961 C.3     
  10 C10           -4.4986     1.5651     1.2834 C.ar    
  11 C11           -5.2514     2.4921     1.9792 C.ar    
  12 C12           -5.9460     2.1092     3.1142 C.ar    
  13 C13           -5.8861     0.7974     3.5520 C.ar    
  14 C14           -5.1318    -0.1301     2.8544 C.ar    
  15 C15           -4.4426     0.2538     1.7164 C.ar    
  16 C16            1.3248     1.8327    -0.0007 C.2     
  17 C17            2.1123     0.7246    -0.0142 C.2     
  18 N18            1.3127    -0.3945    -0.0126 N.pl3   
  19 C19            3.5904     0.7228    -0.0288 C.ar    
  20 C20            4.2878    -0.4861    -0.0419 C.ar    
  21 C21            5.6707    -0.4831    -0.0560 C.ar    
  22 C22            6.3646     0.7258    -0.0571 C.ar    
  23 C23            5.6699     1.9278    -0.0440 C.ar    
  24 C24            4.2912     1.9304    -0.0353 C.ar    
  25 N25            7.7672     0.7279    -0.0709 N.pl3   
  26 C26            8.5836     0.0228     0.7541 C.2     
  27 N27            9.8224     0.2835     0.4353 N.2     
  28 C28            9.8448     1.1503    -0.5878 C.2     
  29 C29            8.5725     1.4375    -0.9234 C.2     
  30 C30           11.0800     1.7030    -1.2511 C.3     
  31 F31           -5.0721    -1.4107     3.2808 F       
  32 F32           -6.6814     3.0157     3.7944 F       
  33 O33            6.3531    -1.6589    -0.0683 O.3     
  34 C34            5.5776    -2.8591    -0.0659 C.3     
  35 H35           -1.2160    -1.7824     0.0045 H       
  36 H36           -3.6093     3.0648     0.0529 H       
  37 H37           -5.5081     2.0589    -1.1845 H       
  38 H38           -3.9865     1.8745    -2.0895 H       
  39 H39           -4.6667     0.4904    -1.2007 H       
  40 H40           -5.2977     3.5156     1.6376 H       
  41 H41           -6.4272     0.4980     4.4374 H       
  42 H42           -3.8543    -0.4699     1.1717 H       
  43 H43            1.6647     2.8579     0.0015 H       
  44 H44            1.6274    -1.3120    -0.0208 H       
  45 H45            3.7487    -1.4219    -0.0407 H       
  46 H46            6.2106     2.8627    -0.0449 H       
  47 H47            3.7532     2.8668    -0.0251 H       
  48 H48            8.2619    -0.6419     1.5422 H       
  49 H49            8.2489     2.1039    -1.7092 H       
  50 H50           11.3716     1.0524    -2.0756 H       
  51 H51           10.8711     2.7022    -1.6331 H       
  52 H52           11.8907     1.7540    -0.5243 H       
  53 H53            6.2436    -3.7220    -0.0766 H       
  54 H54            4.9580    -2.8895     0.8303 H       
  55 H55            4.9398    -2.8814    -0.9495 H       
@<TRIPOS>BOND
   1    1    2 2
   2    1   16 1
   3    1    6 1
   4    2    3 1
   5    2   18 1
   6    3    4 2
   7    3   35 1
   8    4    5 1
   9    5    6 am
  10    5    8 1
  11    6    7 2
  12    8    9 1
  13    8   10 1
  14    8   36 1
  15    9   37 1
  16    9   38 1
  17    9   39 1
  18   10   11 ar
  19   10   15 ar
  20   11   12 ar
  21   11   40 1
  22   12   13 ar
  23   12   32 1
  24   13   14 ar
  25   13   41 1
  26   14   15 ar
  27   14   31 1
  28   15   42 1
  29   16   17 2
  30   16   43 1
  31   17   18 1
  32   17   19 1
  33   18   44 1
  34   19   20 ar
  35   19   24 ar
  36   20   21 ar
  37   20   45 1
  38   21   22 ar
  39   21   33 1
  40   22   23 ar
  41   22   25 1
  42   23   24 ar
  43   23   46 1
  44   24   47 1
  45   25   26 1
  46   25   29 1
  47   26   27 2
  48   26   48 1
  49   27   28 1
  50   28   29 2
  51   28   30 1
  52   29   49 1
  53   30   50 1
  54   30   51 1
  55   30   52 1
  56   33   34 1
  57   34   53 1
  58   34   54 1
  59   34   55 1

#	End of record

