#	Name: ASD03740208
#	Creating user name:	WinNT
#	Creation time:	15. 06. 2019 20:46

#	Modifying user name:	WinNT
#	Modification time:	15. 06. 2019 20:46

#	Program:	/corina/corina34_cracker 3.40 0067  02.08.2006

@<TRIPOS>MOLECULE
ASD03740208
  55   60    0    0    0
SMALL
NO_CHARGES


@<TRIPOS>ATOM
   1 C1            -0.0241     1.4730    -0.0035 C.2     
   2 C2             0.0012     0.0027    -0.0974 C.2     
   3 S3             1.3750    -0.7660    -0.9127 S.3     
   4 N4             2.3385     1.6270     0.0643 N.pl3   
   5 N5             1.0644     2.1892     0.0796 N.2     
   6 C6            -1.3339     2.1652    -0.0099 C.ar    
   7 C7            -2.1480     2.1132    -1.1426 C.ar    
   8 C8            -3.3680     2.7600    -1.1437 C.ar    
   9 C9            -3.7845     3.4597    -0.0245 C.ar    
  10 C10           -2.9801     3.5149     1.1038 C.ar    
  11 C11           -1.7603     2.8660     1.1175 C.ar    
  12 C12            2.6243     0.3423    -0.3417 C.2     
  13 N13            3.9042     0.1631    -0.2157 N.2     
  14 N14            4.4455     1.2435     0.2372 N.2     
  15 C15            3.5346     2.1641     0.4226 C.2     
  16 C16            3.7681     3.5609     0.9379 C.3     
  17 O17            3.6591     3.5674     2.3627 O.3     
  18 C18            3.8438     4.7591     2.9903 C.ar    
  19 C19           -1.0058    -0.7473     0.4297 C.2     
  20 C20           -1.0267    -2.1479     0.2254 C.2     
  21 C21           -1.9837    -3.0231     0.7011 C.2     
  22 C22           -1.6135    -4.3021     0.2659 C.2     
  23 C23           -0.4609    -4.1648    -0.4495 C.2     
  24 O24           -0.1187    -2.8604    -0.4726 O.3     
  25 C25            0.2854    -5.2608    -1.0957 C.ar    
  26 C26            1.4593    -4.9887    -1.8038 C.ar    
  27 C27            2.1520    -6.0180    -2.4056 C.ar    
  28 C28            1.6868    -7.3191    -2.3096 C.ar    
  29 C29            0.5240    -7.5957    -1.6098 C.ar    
  30 C30           -0.1751    -6.5768    -0.9980 C.ar    
  31 C31            4.3052     7.1093     2.8893 C.ar    
  32 C32            4.1183     5.8987     2.2497 C.ar    
  33 C33            3.7522     4.8379     4.3735 C.ar    
  34 C34            3.9399     6.0507     5.0093 C.ar    
  35 C35            4.2189     7.1854     4.2678 C.ar    
  36 Cl36           3.4017     3.4145     5.3035 Cl      
  37 Cl37           4.4543     8.7077     5.0684 Cl      
  38 Cl38          -5.3189     4.2715    -0.0333 Cl      
  39 Cl39          -1.6272     1.2372    -2.5480 Cl      
  40 Cl40           2.5651    -8.6090    -3.0702 Cl      
  41 F41           -3.3922     4.1994     2.1931 F       
  42 H42           -3.9983     2.7202    -2.0198 H       
  43 H43           -1.1364     2.9053     1.9982 H       
  44 H44            4.7650     3.8930     0.6482 H       
  45 H45            3.0232     4.2340     0.5134 H       
  46 H46           -1.7886    -0.2735     1.0035 H       
  47 H47           -2.8500    -2.7702     1.2944 H       
  48 H48           -2.1418    -5.2238     0.4604 H       
  49 H49            1.8228    -3.9746    -1.8797 H       
  50 H50            3.0590    -5.8091    -2.9533 H       
  51 H51            0.1664    -8.6124    -1.5394 H       
  52 H52           -1.0789    -6.7944    -0.4483 H       
  53 H53            4.5194     7.9968     2.3123 H       
  54 H54            4.1862     5.8401     1.1734 H       
  55 H55            3.8685     6.1129     6.0851 H       
@<TRIPOS>BOND
   1    1    2 1
   2    1    5 2
   3    1    6 1
   4    2    3 1
   5    2   19 2
   6    3   12 1
   7    4    5 1
   8    4   15 1
   9    4   12 1
  10    6    7 ar
  11    6   11 ar
  12    7    8 ar
  13    7   39 1
  14    8    9 ar
  15    8   42 1
  16    9   10 ar
  17    9   38 1
  18   10   11 ar
  19   10   41 1
  20   11   43 1
  21   12   13 2
  22   13   14 1
  23   14   15 2
  24   15   16 1
  25   16   17 1
  26   16   44 1
  27   16   45 1
  28   17   18 1
  29   18   33 ar
  30   18   32 ar
  31   19   20 1
  32   19   46 1
  33   20   21 2
  34   20   24 1
  35   21   22 1
  36   21   47 1
  37   22   23 2
  38   22   48 1
  39   23   24 1
  40   23   25 1
  41   25   26 ar
  42   25   30 ar
  43   26   27 ar
  44   26   49 1
  45   27   28 ar
  46   27   50 1
  47   28   29 ar
  48   28   40 1
  49   29   30 ar
  50   29   51 1
  51   30   52 1
  52   31   32 ar
  53   31   35 ar
  54   31   53 1
  55   32   54 1
  56   33   34 ar
  57   33   36 1
  58   34   35 ar
  59   34   55 1
  60   35   37 1

#	End of record

