#	Name: ASD03090024
#	Creating user name:	WinNT
#	Creation time:	15. 06. 2019 20:28

#	Modifying user name:	WinNT
#	Modification time:	15. 06. 2019 20:28

#	Program:	/corina/corina34_cracker 3.40 0067  02.08.2006

@<TRIPOS>MOLECULE
ASD03090024
  25   26    0    0    0
SMALL
NO_CHARGES


@<TRIPOS>ATOM
   1 C1            -0.0168     1.3880     0.0097 C.ar    
   2 C2             0.0021    -0.0041     0.0020 C.ar    
   3 C3            -1.1735    -0.7216     0.0094 C.ar    
   4 C4            -2.3942    -0.0558     0.0251 C.ar    
   5 C5            -2.4167     1.3505     0.0333 C.ar    
   6 C6            -1.2186     2.0677     0.0306 C.ar    
   7 N7            -3.7055    -0.4827     0.0350 N.pl3   
   8 C8            -4.5454     0.5970     0.0490 C.2     
   9 C9            -3.8306     1.7333     0.0488 C.2     
  10 O10            1.1531     2.0812     0.0022 O.3     
  11 C11           -4.3790     3.1369     0.0624 C.3     
  12 C12           -4.4608     3.6664    -1.3707 C.3     
  13 N13           -4.9953     5.0346    -1.3574 N.3     
  14 H14            0.9474    -0.5262    -0.0102 H       
  15 H15           -1.1472    -1.8013     0.0026 H       
  16 H16           -1.2319     3.1476     0.0369 H       
  17 H17           -3.9898    -1.4101     0.0323 H       
  18 H18           -5.6241     0.5432     0.0586 H       
  19 H19            1.4831     2.2864    -0.8833 H       
  20 H20           -5.3746     3.1337     0.5060 H       
  21 H21           -3.7216     3.7781     0.6497 H       
  22 H22           -3.4652     3.6695    -1.8143 H       
  23 H23           -5.1182     3.0252    -1.9579 H       
  24 H24           -5.0592     5.4070    -2.2930 H       
  25 H25           -5.8903     5.0687    -0.8928 H       
@<TRIPOS>BOND
   1    1    2 ar
   2    1   10 1
   3    1    6 ar
   4    2    3 ar
   5    2   14 1
   6    3    4 ar
   7    3   15 1
   8    4    5 ar
   9    4    7 1
  10    5    6 ar
  11    5    9 1
  12    6   16 1
  13    7    8 1
  14    7   17 1
  15    8    9 2
  16    8   18 1
  17    9   11 1
  18   10   19 1
  19   11   12 1
  20   11   20 1
  21   11   21 1
  22   12   13 1
  23   12   22 1
  24   12   23 1
  25   13   24 1
  26   13   25 1

#	End of record

