#	Name: ASD01911166
#	Creating user name:	WinNT
#	Creation time:	15. 06. 2019 19:57

#	Modifying user name:	WinNT
#	Modification time:	15. 06. 2019 19:57

#	Program:	/corina/corina34_cracker 3.40 0067  02.08.2006

@<TRIPOS>MOLECULE
ASD01911166
  37   38    0    0    0
SMALL
NO_CHARGES


@<TRIPOS>ATOM
   1 N1            -0.0169     1.3965     0.0097 N.2     
   2 N2             0.0021    -0.0041     0.0020 N.pl3   
   3 C3             1.2284     1.8226     0.0001 C.2     
   4 C4             2.0722     0.6950    -0.0140 C.2     
   5 C5             1.2909    -0.4070    -0.0125 C.2     
   6 C6             1.7727    -1.8348    -0.0240 C.3     
   7 C7             1.6661     3.2408     0.0031 C.ar    
   8 C8             0.7209     4.2640     0.0177 C.ar    
   9 C9             1.1335     5.5813     0.0209 C.ar    
  10 C10            2.4825     5.8860     0.0092 C.ar    
  11 C11            3.4253     4.8738    -0.0057 C.ar    
  12 C12            3.0240     3.5535    -0.0028 C.ar    
  13 C13           -1.1724    -0.8798     0.0090 C.3     
  14 C14           -1.5888    -1.1729    -1.4094 C.2     
  15 O15           -2.6491    -1.9606    -1.6484 O.3     
  16 O16           -0.9682    -0.6990    -2.3314 O.2     
  17 C17           -2.9926    -2.1997    -3.0388 C.3     
  18 C18            2.0685    -2.2848     1.4081 C.3     
  19 C19            0.1122     6.6894     0.0367 C.3     
  20 H20            3.1521     0.7089    -0.0248 H       
  21 H21            1.0024    -2.4748    -0.4541 H       
  22 H22            2.6809    -1.9070    -0.6224 H       
  23 H23           -0.3328     4.0271     0.0261 H       
  24 H24            2.8010     6.9180     0.0114 H       
  25 H25            4.4775     5.1173    -0.0152 H       
  26 H26            3.7609     2.7640    -0.0141 H       
  27 H27           -0.9267    -1.8130     0.5158 H       
  28 H28           -1.9906    -0.3861     0.5332 H       
  29 H29           -3.8657    -2.8500    -3.0907 H       
  30 H30           -3.2169    -1.2508    -3.5260 H       
  31 H31           -2.1530    -2.6777    -3.5434 H       
  32 H32            2.8389    -1.6448     1.8383 H       
  33 H33            1.1603    -2.2127     2.0065 H       
  34 H34            2.4170    -3.3176     1.3998 H       
  35 H35           -0.1242     6.9509     1.0681 H       
  36 H36            0.5155     7.5625    -0.4763 H       
  37 H37           -0.7933     6.3561    -0.4704 H       
@<TRIPOS>BOND
   1    1    2 1
   2    1    3 2
   3    2   13 1
   4    2    5 1
   5    3    4 1
   6    3    7 1
   7    4    5 2
   8    4   20 1
   9    5    6 1
  10    6   18 1
  11    6   21 1
  12    6   22 1
  13    7    8 ar
  14    7   12 ar
  15    8    9 ar
  16    8   23 1
  17    9   10 ar
  18    9   19 1
  19   10   11 ar
  20   10   24 1
  21   11   12 ar
  22   11   25 1
  23   12   26 1
  24   13   14 1
  25   13   27 1
  26   13   28 1
  27   14   15 1
  28   14   16 2
  29   15   17 1
  30   17   29 1
  31   17   30 1
  32   17   31 1
  33   18   32 1
  34   18   33 1
  35   18   34 1
  36   19   35 1
  37   19   36 1
  38   19   37 1

#	End of record

