#	Name: ASD02500672
#	Creating user name:	WinNT
#	Creation time:	15. 06. 2019 20:23

#	Modifying user name:	WinNT
#	Modification time:	15. 06. 2019 20:23

#	Program:	/corina/corina34_cracker 3.40 0067  02.08.2006

@<TRIPOS>MOLECULE
ASD02500672
  71   75    0    0    0
SMALL
NO_CHARGES


@<TRIPOS>ATOM
   1 N1            -4.0453     5.5289    -2.1428 N.ar    
   2 C2            -4.9816     6.1396    -2.8273 C.ar    
   3 C3            -6.2912     6.2297    -2.3599 C.ar    
   4 C4            -6.6261     5.6722    -1.1589 C.ar    
   5 C5            -5.6181     5.0166    -0.4268 C.ar    
   6 C6            -5.8870     4.4204     0.8154 C.ar    
   7 C7            -4.8844     3.7959     1.4932 C.ar    
   8 C8            -3.5942     3.7411     0.9704 C.ar    
   9 C9            -3.2985     4.3085    -0.2308 C.ar    
  10 C10           -4.3064     4.9621    -0.9605 C.ar    
  11 S11           -1.6580     4.2249    -0.8684 S.o2    
  12 O12           -1.2996     5.5517    -1.2293 O.2     
  13 O13           -0.9099     3.4404     0.0504 O.2     
  14 N14           -1.7235     3.3583    -2.2781 N.am    
  15 C15           -2.0302     1.9999    -2.2470 C.ar    
  16 C16           -1.4120     1.1250    -3.1429 C.ar    
  17 C17           -1.7153    -0.2208    -3.1127 C.ar    
  18 C18           -2.6420    -0.7053    -2.1840 C.ar    
  19 C19           -3.2572     0.1748    -1.2902 C.ar    
  20 C20           -2.9468     1.5166    -1.3206 C.ar    
  21 O21           -0.5116     1.5994    -4.0452 O.3     
  22 C22            0.0820     0.6480    -4.9310 C.3     
  23 C23           -2.9696    -2.1433    -2.1485 C.2     
  24 O24           -3.1126    -2.7601    -3.1866 O.2     
  25 N25           -3.1104    -2.7733    -0.9655 N.am    
  26 C26           -3.3255    -4.2271    -0.9053 C.3     
  27 C27           -2.3087    -4.8297     0.0700 C.3     
  28 N28           -2.4011    -4.1341     1.3606 N.3     
  29 C29           -2.0470    -2.7147     1.2275 C.3     
  30 C30           -3.0470    -2.0263     0.2999 C.3     
  31 C31           -1.5662    -4.7923     2.3743 C.3     
  32 C32           -1.6189    -3.9912     3.6768 C.3     
  33 C33           -3.0567    -3.9607     4.1989 C.3     
  34 C34           -3.1094    -3.1596     5.5014 C.3     
  35 C35           -2.2027    -3.8189     6.5426 C.3     
  36 C36           -0.7649    -3.8495     6.0205 C.3     
  37 C37           -0.7121    -4.6505     4.7180 C.3     
  38 H38           -4.7313     6.5852    -3.7787 H       
  39 H39           -7.0406     6.7401    -2.9465 H       
  40 H40           -7.6361     5.7328    -0.7813 H       
  41 H41           -6.8830     4.4570     1.2313 H       
  42 H42           -5.0922     3.3375     2.4487 H       
  43 H43           -2.8161     3.2406     1.5276 H       
  44 H44           -1.5483     3.7967    -3.1254 H       
  45 H45           -1.2383    -0.8986    -3.8051 H       
  46 H46           -3.9733    -0.1976    -0.5726 H       
  47 H47           -3.4200     2.1950    -0.6261 H       
  48 H48            0.6169    -0.1040    -4.3509 H       
  49 H49           -0.6973     0.1653    -5.5208 H       
  50 H50            0.7790     1.1569    -5.5967 H       
  51 H51           -4.3365    -4.4334    -0.5540 H       
  52 H52           -3.1837    -4.6595    -1.8957 H       
  53 H53           -2.5238    -5.8888     0.2114 H       
  54 H54           -1.3033    -4.7132    -0.3348 H       
  55 H55           -2.0723    -2.2400     2.2084 H       
  56 H56           -1.0453    -2.6277     0.8066 H       
  57 H57           -2.7211    -1.0044     0.1059 H       
  58 H58           -4.0307    -2.0170     0.7693 H       
  59 H59           -1.9387    -5.8010     2.5527 H       
  60 H60           -0.5365    -4.8425     2.0201 H       
  61 H61           -1.2780    -2.9727     3.4910 H       
  62 H62           -3.7027    -3.4910     3.4571 H       
  63 H63           -3.3975    -4.9792     4.3847 H       
  64 H64           -2.7686    -2.1411     5.3156 H       
  65 H65           -4.1338    -3.1378     5.8733 H       
  66 H66           -2.2403    -3.2482     7.4705 H       
  67 H67           -2.5435    -4.8374     6.7284 H       
  68 H68           -0.4240    -2.8309     5.8347 H       
  69 H69           -0.1189    -4.3191     6.7623 H       
  70 H70           -1.0530    -5.6690     4.9038 H       
  71 H71            0.3122    -4.6723     4.3460 H       
@<TRIPOS>BOND
   1    1    2 ar
   2    1   10 ar
   3    2    3 ar
   4    2   38 1
   5    3    4 ar
   6    3   39 1
   7    4    5 ar
   8    4   40 1
   9    5    6 ar
  10    5   10 ar
  11    6    7 ar
  12    6   41 1
  13    7    8 ar
  14    7   42 1
  15    8    9 ar
  16    8   43 1
  17    9   10 ar
  18    9   11 1
  19   11   12 2
  20   11   13 2
  21   11   14 am
  22   14   15 1
  23   14   44 1
  24   15   16 ar
  25   15   20 ar
  26   16   17 ar
  27   16   21 1
  28   17   18 ar
  29   17   45 1
  30   18   19 ar
  31   18   23 1
  32   19   20 ar
  33   19   46 1
  34   20   47 1
  35   21   22 1
  36   22   48 1
  37   22   49 1
  38   22   50 1
  39   23   24 2
  40   23   25 am
  41   25   26 1
  42   25   30 1
  43   26   27 1
  44   26   51 1
  45   26   52 1
  46   27   28 1
  47   27   53 1
  48   27   54 1
  49   28   29 1
  50   28   31 1
  51   29   30 1
  52   29   55 1
  53   29   56 1
  54   30   57 1
  55   30   58 1
  56   31   32 1
  57   31   59 1
  58   31   60 1
  59   32   33 1
  60   32   37 1
  61   32   61 1
  62   33   34 1
  63   33   62 1
  64   33   63 1
  65   34   35 1
  66   34   64 1
  67   34   65 1
  68   35   36 1
  69   35   66 1
  70   35   67 1
  71   36   37 1
  72   36   68 1
  73   36   69 1
  74   37   70 1
  75   37   71 1

#	End of record

