#	Name: ASD00840688
#	Creating user name:	WinNT
#	Creation time:	15. 06. 2019 18:39

#	Modifying user name:	WinNT
#	Modification time:	15. 06. 2019 18:39

#	Program:	/corina/corina34_cracker 3.40 0067  02.08.2006

@<TRIPOS>MOLECULE
ASD00840688
  99  104    0    0    0
SMALL
NO_CHARGES


@<TRIPOS>ATOM
   1 N1             1.0668     1.4583    -0.7463 N.ar    
   2 C2             1.3274     0.1664    -0.8551 C.ar    
   3 C3             1.2457    -0.6680     0.2526 C.ar    
   4 C4             0.8873    -0.1296     1.4759 C.ar    
   5 C5             0.6218     1.2312     1.5483 C.ar    
   6 C6             0.7226     2.0005     0.4065 C.ar    
   7 C7             1.5431    -2.1397     0.1237 C.3     
   8 C8             1.2603    -2.8545     1.4279 C.2     
   9 C9             0.7233    -2.7535    -1.0130 C.3     
  10 C10           -0.7388    -2.4634    -0.7913 C.2     
  11 N11           -1.6629    -2.9847    -1.6224 N.am    
  12 O12           -1.0840    -1.7607     0.1351 O.2     
  13 C13           -3.0803    -2.6221    -1.4878 C.3     
  14 C14           -3.9086    -3.9054    -1.3707 C.3     
  15 C15           -3.6031    -4.8156    -2.5625 C.3     
  16 C16           -2.1204    -5.1948    -2.5501 C.3     
  17 C17           -1.2711    -3.9217    -2.6842 C.3     
  18 C18           -4.4543    -6.0834    -2.4671 C.3     
  19 C19           -5.9381    -5.7057    -2.4812 C.3     
  20 C20           -6.7842    -6.9804    -2.4470 C.3     
  21 N21           -6.4620    -7.8147    -3.6117 N.3     
  22 C22           -5.0533    -8.2290    -3.5947 C.3     
  23 C23           -4.1555    -6.9915    -3.6632 C.3     
  24 C24           -7.3527    -8.9805    -3.6867 C.3     
  25 O25            0.1881    -2.9308     1.9894 O.2     
  26 N26            2.4195    -3.3890     1.8463 N.am    
  27 C27            3.0208    -2.3638    -0.1038 C.ar    
  28 C28            3.4713    -3.1218     0.9744 C.ar    
  29 C29            3.8783    -1.9735    -1.1010 C.ar    
  30 C30            5.2280    -2.3387    -1.0409 C.ar    
  31 C31            5.6879    -3.1006     0.0399 C.ar    
  32 C32            4.8160    -3.4877     1.0349 C.ar    
  33 F33            6.9890    -3.4583     0.1072 F       
  34 C34            2.2853    -5.9547     2.8331 C.ar    
  35 C35            1.0309    -6.3533     2.3940 C.ar    
  36 C36            3.3058    -6.8799     2.9448 C.ar    
  37 C37            3.0801    -8.2034     2.6192 C.ar    
  38 C38            1.8270    -8.6071     2.1795 C.ar    
  39 C39            0.8017    -7.6811     2.0671 C.ar    
  40 O40            1.6055    -9.9092     1.8598 O.3     
  41 O41            0.0277    -5.4431     2.2848 O.3     
  42 C42           -1.2375    -5.9240     1.8264 C.3     
  43 C43            2.7074   -10.8082     2.0001 C.3     
  44 C44           -7.1585    -9.6850    -5.0310 C.3     
  45 C45           -8.0861   -10.8992    -5.1092 C.3     
  46 S46            2.5794    -4.2661     3.2418 S.o2    
  47 O47            3.9468    -4.1765     3.6176 O.2     
  48 O48            1.5122    -3.8671     4.0910 O.2     
  49 O49            1.6773    -0.3493    -2.0603 O.3     
  50 C50            2.1708    -0.1850    -4.4204 C.3     
  51 C51            1.6356     0.5358    -3.1815 C.3     
  52 C52            6.1312    -1.9368    -2.0769 C.1     
  53 N53            6.8478    -1.6179    -2.8987 N.1     
  54 H54            0.8153    -0.7538     2.3543 H       
  55 H55            0.3391     1.6829     2.4877 H       
  56 H56            0.5175     3.0597     0.4575 H       
  57 H57            1.0393    -2.3223    -1.9629 H       
  58 H58            0.8807    -3.8319    -1.0333 H       
  59 H59           -3.2188    -2.0149    -0.5933 H       
  60 H60           -3.3988    -2.0605    -2.3661 H       
  61 H61           -3.6527    -4.4204    -0.4447 H       
  62 H62           -4.9694    -3.6547    -1.3669 H       
  63 H63           -3.8360    -4.2910    -3.4892 H       
  64 H64           -1.8814    -5.6975    -1.6130 H       
  65 H65           -1.9085    -5.8617    -3.3857 H       
  66 H66           -1.4433    -3.4687    -3.6605 H       
  67 H67           -0.2160    -4.1733    -2.5768 H       
  68 H68           -4.2211    -6.6098    -1.5416 H       
  69 H69           -6.1662    -5.0940    -1.6083 H       
  70 H70           -6.1622    -5.1444    -3.3883 H       
  71 H71           -6.5697    -7.5343    -1.5330 H       
  72 H72           -7.8412    -6.7155    -2.4713 H       
  73 H73           -4.8469    -8.7770    -2.6754 H       
  74 H74           -4.8531    -8.8708    -4.4526 H       
  75 H75           -4.3515    -6.4504    -4.5889 H       
  76 H76           -3.1100    -7.2985    -3.6348 H       
  77 H77           -7.1163    -9.6711    -2.8772 H       
  78 H78           -8.3882    -8.6531    -3.5944 H       
  79 H79            3.5127    -1.3862    -1.9303 H       
  80 H80            5.1761    -4.0755     1.8663 H       
  81 H81            4.2815    -6.5677     3.2867 H       
  82 H82            3.8794    -8.9244     2.7066 H       
  83 H83           -0.1741    -7.9934     1.7255 H       
  84 H84           -1.1236    -6.3550     0.8317 H       
  85 H85           -1.6068    -6.6861     2.5126 H       
  86 H86           -1.9470    -5.0975     1.7851 H       
  87 H87            3.0417   -10.8141     3.0375 H       
  88 H88            2.3957   -11.8125     1.7130 H       
  89 H89            3.5252   -10.4837     1.3566 H       
  90 H90           -7.3948    -8.9944    -5.8405 H       
  91 H91           -6.1229   -10.0124    -5.1233 H       
  92 H92           -7.8498   -11.5897    -4.2996 H       
  93 H93           -9.1217   -10.5718    -5.0168 H       
  94 H94           -7.9477   -11.4010    -6.0668 H       
  95 H95            2.2209     0.5149    -5.2546 H       
  96 H96            3.1674    -0.5742    -4.2122 H       
  97 H97            1.5052    -1.0091    -4.6771 H       
  98 H98            0.6068     0.8488    -3.3592 H       
  99 H99            2.2514     1.4114    -2.9762 H       
@<TRIPOS>BOND
   1    1    2 ar
   2    1    6 ar
   3    2    3 ar
   4    2   49 1
   5    3    4 ar
   6    3    7 1
   7    4    5 ar
   8    4   54 1
   9    5    6 ar
  10    5   55 1
  11    6   56 1
  12    7    8 1
  13    7    9 1
  14    7   27 1
  15    8   25 2
  16    8   26 am
  17    9   10 1
  18    9   57 1
  19    9   58 1
  20   10   11 am
  21   10   12 2
  22   11   13 1
  23   11   17 1
  24   13   14 1
  25   13   59 1
  26   13   60 1
  27   14   15 1
  28   14   61 1
  29   14   62 1
  30   15   16 1
  31   15   18 1
  32   15   63 1
  33   16   17 1
  34   16   64 1
  35   16   65 1
  36   17   66 1
  37   17   67 1
  38   18   19 1
  39   18   23 1
  40   18   68 1
  41   19   20 1
  42   19   69 1
  43   19   70 1
  44   20   21 1
  45   20   71 1
  46   20   72 1
  47   21   22 1
  48   21   24 1
  49   22   23 1
  50   22   73 1
  51   22   74 1
  52   23   75 1
  53   23   76 1
  54   24   44 1
  55   24   77 1
  56   24   78 1
  57   26   46 am
  58   26   28 1
  59   27   28 ar
  60   27   29 ar
  61   28   32 ar
  62   29   30 ar
  63   29   79 1
  64   30   31 ar
  65   30   52 1
  66   31   32 ar
  67   31   33 1
  68   32   80 1
  69   34   35 ar
  70   34   36 ar
  71   34   46 1
  72   35   41 1
  73   35   39 ar
  74   36   37 ar
  75   36   81 1
  76   37   38 ar
  77   37   82 1
  78   38   39 ar
  79   38   40 1
  80   39   83 1
  81   40   43 1
  82   41   42 1
  83   42   84 1
  84   42   85 1
  85   42   86 1
  86   43   87 1
  87   43   88 1
  88   43   89 1
  89   44   45 1
  90   44   90 1
  91   44   91 1
  92   45   92 1
  93   45   93 1
  94   45   94 1
  95   46   47 2
  96   46   48 2
  97   49   51 1
  98   50   51 1
  99   50   95 1
 100   50   96 1
 101   50   97 1
 102   51   98 1
 103   51   99 1
 104   52   53 3

#	End of record

