#	Name: ASD03331211
#	Creating user name:	WinNT
#	Creation time:	15. 06. 2019 20:38

#	Modifying user name:	WinNT
#	Modification time:	15. 06. 2019 20:38

#	Program:	/corina/corina34_cracker 3.40 0067  02.08.2006

@<TRIPOS>MOLECULE
ASD03331211
  47   49    0    0    0
SMALL
NO_CHARGES


@<TRIPOS>ATOM
   1 N1            -0.0459     1.4957     0.5704 N.am    
   2 C2             0.0021     0.1510     1.1643 C.3     
   3 C3             0.5965    -0.8152     0.1342 C.3     
   4 N4             1.8891    -0.2953    -0.3313 N.3     
   5 C5             1.7283     0.9905    -1.0234 C.3     
   6 C6             1.1804     2.0307    -0.0406 C.3     
   7 C7            -1.1848     2.2163     0.5809 C.2     
   8 O8            -2.2137     1.7211     0.9985 O.2     
   9 N9            -1.1831     3.4859     0.1284 N.am    
  10 C10           -2.3850     4.1962     0.0330 C.ar    
  11 C11           -2.4007     5.5669     0.2480 C.ar    
  12 C12           -3.5933     6.2672     0.1526 C.ar    
  13 C13           -4.7679     5.5965    -0.1574 C.ar    
  14 C14           -4.7503     4.2311    -0.3712 C.ar    
  15 C15           -3.5630     3.5309    -0.2827 C.ar    
  16 C16            2.5718    -1.2731    -1.1891 C.3     
  17 C17            3.7641    -0.6226    -1.8420 C.ar    
  18 C18            4.9969    -0.6555    -1.2177 C.ar    
  19 C19            6.0913    -0.0586    -1.8156 C.ar    
  20 C20            5.9529     0.5712    -3.0389 C.ar    
  21 C21            4.7183     0.6037    -3.6643 C.ar    
  22 C22            3.6256     0.0018    -3.0676 C.ar    
  23 Br23           4.5276     1.4652    -5.3368 Br      
  24 Br24           7.4494     1.3882    -3.8568 Br      
  25 O25           -3.6121     7.6097     0.3631 O.3     
  26 C26           -4.8760     8.2666     0.2485 C.3     
  27 H27            0.6289     0.1667     2.0560 H       
  28 H28           -1.0060    -0.1691     1.4276 H       
  29 H29            0.7418    -1.7928     0.5939 H       
  30 H30           -0.0841    -0.9084    -0.7121 H       
  31 H31            2.6946     1.3224    -1.4031 H       
  32 H32            1.0320     0.8721    -1.8535 H       
  33 H33            0.9513     2.9533    -0.5740 H       
  34 H34            1.9204     2.2271     0.7352 H       
  35 H35           -0.3488     3.9072    -0.1311 H       
  36 H36           -1.4857     6.0872     0.4895 H       
  37 H37           -5.6970     6.1421    -0.2313 H       
  38 H38           -5.6658     3.7115    -0.6124 H       
  39 H39           -3.5511     2.4648    -0.4550 H       
  40 H40            2.9040    -2.1172    -0.5848 H       
  41 H41            1.8837    -1.6250    -1.9578 H       
  42 H42            5.1053    -1.1473    -0.2624 H       
  43 H43            7.0542    -0.0840    -1.3271 H       
  44 H44            2.6622     0.0269    -3.5551 H       
  45 H45           -4.7502     9.3323     0.4400 H       
  46 H46           -5.2706     8.1223    -0.7572 H       
  47 H47           -5.5711     7.8464     0.9753 H       
@<TRIPOS>BOND
   1    1    2 1
   2    1    6 1
   3    1    7 am
   4    2    3 1
   5    2   27 1
   6    2   28 1
   7    3    4 1
   8    3   29 1
   9    3   30 1
  10    4    5 1
  11    4   16 1
  12    5    6 1
  13    5   31 1
  14    5   32 1
  15    6   33 1
  16    6   34 1
  17    7    8 2
  18    7    9 am
  19    9   10 1
  20    9   35 1
  21   10   11 ar
  22   10   15 ar
  23   11   12 ar
  24   11   36 1
  25   12   13 ar
  26   12   25 1
  27   13   14 ar
  28   13   37 1
  29   14   15 ar
  30   14   38 1
  31   15   39 1
  32   16   17 1
  33   16   40 1
  34   16   41 1
  35   17   18 ar
  36   17   22 ar
  37   18   19 ar
  38   18   42 1
  39   19   20 ar
  40   19   43 1
  41   20   21 ar
  42   20   24 1
  43   21   22 ar
  44   21   23 1
  45   22   44 1
  46   25   26 1
  47   26   45 1
  48   26   46 1
  49   26   47 1

#	End of record

