#	Name: ASD01883083
#	Creating user name:	WinNT
#	Creation time:	15. 06. 2019 19:45

#	Modifying user name:	WinNT
#	Modification time:	15. 06. 2019 19:45

#	Program:	/corina/corina34_cracker 3.40 0067  02.08.2006

@<TRIPOS>MOLECULE
ASD01883083
  60   63    0    0    0
SMALL
NO_CHARGES


@<TRIPOS>ATOM
   1 N1            -0.0162     1.3417     0.0094 N.am    
   2 C2             0.0021    -0.0041     0.0020 C.2     
   3 C3            -1.2161    -0.7274     0.0102 C.2     
   4 C4            -2.4261    -0.0112     0.0261 C.2     
   5 C5            -2.3786     1.3968     0.0332 C.2     
   6 C6            -1.1850     2.0325     0.0299 C.2     
   7 O7             1.0657    -0.6000    -0.0122 O.2     
   8 C8            -1.2151    -2.1594     0.0021 C.1     
   9 N9            -1.2144    -3.2953    -0.0044 N.1     
  10 C10            1.2513     2.0764     0.0013 C.3     
  11 C11            1.6723     2.3359    -1.4223 C.ar    
  12 C12            1.2643     3.4913    -2.0629 C.ar    
  13 C13            1.6489     3.7316    -3.3678 C.ar    
  14 C14            2.4452     2.8124    -4.0354 C.ar    
  15 C15            2.8532     1.6539    -3.3904 C.ar    
  16 C16            2.4705     1.4210    -2.0836 C.ar    
  17 C17           -3.7218    -0.7213     0.0347 C.ar    
  18 C18           -4.5708    -0.6162     1.1391 C.ar    
  19 C19           -5.7778    -1.2797     1.1433 C.ar    
  20 C20           -6.1513    -2.0534     0.0510 C.ar    
  21 C21           -5.3094    -2.1609    -1.0494 C.ar    
  22 C22           -4.1037    -1.4950    -1.0640 C.ar    
  23 O23           -7.3417    -2.7063     0.0591 O.3     
  24 C24           -7.6630    -3.4838    -1.0960 C.3     
  25 C25           -9.0318    -4.1399    -0.9045 C.3     
  26 N26          -10.0676    -3.1006    -0.8352 N.3     
  27 C27          -11.4123    -3.6923    -0.8899 C.3     
  28 C28          -12.4583    -2.5826    -0.7548 C.3     
  29 O29          -12.2517    -1.6118    -1.7846 O.3     
  30 C30          -10.9524    -1.0147    -1.7605 C.3     
  31 C31           -9.8911    -2.1086    -1.9057 C.3     
  32 O32            2.8245     3.0462    -5.3193 O.3     
  33 C33            3.6442     2.0564    -5.9441 C.3     
  34 F34            2.9625     0.8350    -5.9701 F       
  35 F35            3.9394     2.4537    -7.2527 F       
  36 F36            4.8332     1.9116    -5.2213 F       
  37 H37           -3.2949     1.9683     0.0453 H       
  38 H38           -1.1610     3.1122     0.0354 H       
  39 H39            1.1242     3.0258     0.5214 H       
  40 H40            2.0168     1.4859     0.5046 H       
  41 H41            0.6442     4.2064    -1.5428 H       
  42 H42            1.3297     4.6340    -3.8679 H       
  43 H43            3.4731     0.9368    -3.9081 H       
  44 H44            2.7879     0.5192    -1.5810 H       
  45 H45           -4.2809    -0.0157     1.9887 H       
  46 H46           -6.4347    -1.1990     1.9968 H       
  47 H47           -5.6031    -2.7634    -1.8962 H       
  48 H48           -3.4501    -1.5788    -1.9197 H       
  49 H49           -7.6895    -2.8373    -1.9733 H       
  50 H50           -6.9064    -4.2558    -1.2363 H       
  51 H51           -9.2378    -4.8027    -1.7450 H       
  52 H52           -9.0324    -4.7158     0.0209 H       
  53 H53          -11.5460    -4.2046    -1.8427 H       
  54 H54          -11.5299    -4.4047    -0.0733 H       
  55 H55          -13.4565    -3.0095    -0.8521 H       
  56 H56          -12.3591    -2.1056     0.2202 H       
  57 H57          -10.8615    -0.3076    -2.5851 H       
  58 H58          -10.8094    -0.4921    -0.8147 H       
  59 H59           -8.8984    -1.6648    -1.8307 H       
  60 H60          -10.0006    -2.5955    -2.8748 H       
@<TRIPOS>BOND
   1    1    2 am
   2    1   10 1
   3    1    6 1
   4    2    3 1
   5    2    7 2
   6    3    4 2
   7    3    8 1
   8    4    5 1
   9    4   17 1
  10    5    6 2
  11    5   37 1
  12    6   38 1
  13    8    9 3
  14   10   11 1
  15   10   39 1
  16   10   40 1
  17   11   12 ar
  18   11   16 ar
  19   12   13 ar
  20   12   41 1
  21   13   14 ar
  22   13   42 1
  23   14   15 ar
  24   14   32 1
  25   15   16 ar
  26   15   43 1
  27   16   44 1
  28   17   18 ar
  29   17   22 ar
  30   18   19 ar
  31   18   45 1
  32   19   20 ar
  33   19   46 1
  34   20   21 ar
  35   20   23 1
  36   21   22 ar
  37   21   47 1
  38   22   48 1
  39   23   24 1
  40   24   25 1
  41   24   49 1
  42   24   50 1
  43   25   26 1
  44   25   51 1
  45   25   52 1
  46   26   27 1
  47   26   31 1
  48   27   28 1
  49   27   53 1
  50   27   54 1
  51   28   29 1
  52   28   55 1
  53   28   56 1
  54   29   30 1
  55   30   31 1
  56   30   57 1
  57   30   58 1
  58   31   59 1
  59   31   60 1
  60   32   33 1
  61   33   34 1
  62   33   35 1
  63   33   36 1

#	End of record

