#	Name: ASD01209157
#	Creating user name:	WinNT
#	Creation time:	15. 06. 2019 19:11

#	Modifying user name:	WinNT
#	Modification time:	15. 06. 2019 19:11

#	Program:	/corina/corina34_cracker 3.40 0067  02.08.2006

@<TRIPOS>MOLECULE
ASD01209157
  62   63    0    0    0
SMALL
NO_CHARGES


@<TRIPOS>ATOM
   1 O1             1.1040     0.1855    -0.4109 O.3     
   2 O2             3.2099     1.0268     0.9194 O.3     
   3 C3             2.4420     6.0712    -8.6174 C.ar    
   4 C4             1.5463     6.2132    -9.6673 C.ar    
   5 C5             0.2237     5.8237    -9.5136 C.ar    
   6 C6            -0.2081     5.2911    -8.3101 C.ar    
   7 C7             0.6893     5.1466    -7.2515 C.ar    
   8 C8             2.0201     5.5344    -7.4123 C.ar    
   9 O9            -0.6496     5.9649   -10.5453 O.3     
  10 C10           -1.9640     5.4359   -10.3598 C.3     
  11 C11            0.2329     4.5793    -5.9650 C.2     
  12 N12            1.1014     4.4406    -4.9437 N.am    
  13 O13           -0.9257     4.2379    -5.8282 O.2     
  14 C14            0.6725     3.9075    -3.7350 C.2     
  15 P15            2.2998     1.2633    -0.3875 P.3     
  16 O16            3.1303     1.1052    -1.6022 O.2     
  17 C17            1.6002     2.9462    -0.3444 C.3     
  18 N18            1.4234     3.7316    -2.6928 N.2     
  19 S19           -0.9241     3.3944    -3.4024 S.3     
  20 C20           -0.4479     2.9358    -1.7695 C.2     
  21 C21            0.8498     3.2111    -1.6242 C.2     
  22 C22            1.3251    -1.2194    -0.5504 C.3     
  23 C23           -0.0184    -1.9513    -0.5337 C.3     
  24 C24            3.9805    -0.1585     1.1271 C.3     
  25 C25            4.7226    -0.0571     2.4613 C.3     
  26 O26            3.7366     6.4543    -8.7734 O.3     
  27 C27            4.5764     6.3879    -7.6191 C.3     
  28 C28           -2.8330     6.4696    -9.6406 C.3     
  29 C29           -2.5800     5.1110   -11.7221 C.3     
  30 C30            5.1409     4.9727    -7.4799 C.3     
  31 C31            5.7280     7.3840    -7.7682 C.3     
  32 H32            1.8796     6.6284   -10.6070 H       
  33 H33           -1.2381     4.9889    -8.1910 H       
  34 H34            2.7181     5.4239    -6.5956 H       
  35 H35           -1.9087     4.5274    -9.7601 H       
  36 H36            2.0259     4.7130    -5.0529 H       
  37 H37            0.9186     3.0348     0.5015 H       
  38 H38            2.4064     3.6722    -0.2391 H       
  39 H39           -1.0941     2.5098    -1.0163 H       
  40 H40            1.8339    -1.4152    -1.4943 H       
  41 H41            1.9422    -1.5738     0.2753 H       
  42 H42            0.1503    -3.0229    -0.6401 H       
  43 H43           -0.5271    -1.7555     0.4102 H       
  44 H44           -0.6354    -1.5968    -1.3594 H       
  45 H45            3.3182    -1.0240     1.1446 H       
  46 H46            4.7020    -0.2693     0.3176 H       
  47 H47            5.3849     0.8085     2.4438 H       
  48 H48            4.0012     0.0537     3.2708 H       
  49 H49            5.3104    -0.9612     2.6197 H       
  50 H50            3.9943     6.6357    -6.7315 H       
  51 H51           -3.8357     6.0660    -9.4991 H       
  52 H52           -2.3942     6.7010    -8.6701 H       
  53 H53           -2.8884     7.3781   -10.2404 H       
  54 H54           -1.9609     4.3746   -12.2345 H       
  55 H55           -3.5826     4.7074   -11.5806 H       
  56 H56           -2.6353     6.0195   -12.3218 H       
  57 H57            5.7815     4.9220    -6.5995 H       
  58 H58            4.3205     4.2630    -7.3737 H       
  59 H59            5.7231     4.7248    -8.3675 H       
  60 H60            5.3258     8.3922    -7.8674 H       
  61 H61            6.3686     7.3333    -6.8878 H       
  62 H62            6.3102     7.1362    -8.6558 H       
@<TRIPOS>BOND
   1    1   22 1
   2    1   15 1
   3    2   24 1
   4    2   15 1
   5    3    4 ar
   6    3   26 1
   7    3    8 ar
   8    4    5 ar
   9    4   32 1
  10    5    6 ar
  11    5    9 1
  12    6    7 ar
  13    6   33 1
  14    7    8 ar
  15    7   11 1
  16    8   34 1
  17    9   10 1
  18   10   28 1
  19   10   29 1
  20   10   35 1
  21   11   12 am
  22   11   13 2
  23   12   14 1
  24   12   36 1
  25   14   18 2
  26   14   19 1
  27   15   16 2
  28   15   17 1
  29   17   21 1
  30   17   37 1
  31   17   38 1
  32   18   21 1
  33   19   20 1
  34   20   21 2
  35   20   39 1
  36   22   23 1
  37   22   40 1
  38   22   41 1
  39   23   42 1
  40   23   43 1
  41   23   44 1
  42   24   25 1
  43   24   45 1
  44   24   46 1
  45   25   47 1
  46   25   48 1
  47   25   49 1
  48   26   27 1
  49   27   30 1
  50   27   31 1
  51   27   50 1
  52   28   51 1
  53   28   52 1
  54   28   53 1
  55   29   54 1
  56   29   55 1
  57   29   56 1
  58   30   57 1
  59   30   58 1
  60   30   59 1
  61   31   60 1
  62   31   61 1
  63   31   62 1

#	End of record

