#	Name: ASD07931558
#	Creating user name:	WinNT
#	Creation time:	15. 06. 2019 21:13

#	Modifying user name:	WinNT
#	Modification time:	15. 06. 2019 21:13

#	Program:	/corina/corina34_cracker 3.40 0067  02.08.2006

@<TRIPOS>MOLECULE
ASD07931558
  61   66    0    0    0
SMALL
NO_CHARGES


@<TRIPOS>ATOM
   1 N1            -0.0161     1.3386     0.0094 N.pl3   
   2 C2             0.0021    -0.0041     0.0020 C.2     
   3 C3             1.1793    -0.7101    -0.0131 C.2     
   4 C4             2.4649     0.0245    -0.0214 C.2     
   5 C5             2.3994     1.4984    -0.0133 C.ar    
   6 C6             3.5527     2.2766    -0.0210 C.ar    
   7 C7             3.4490     3.6522    -0.0138 C.ar    
   8 C8             2.2021     4.2571     0.0015 C.ar    
   9 C9             1.0517     3.4965     0.0092 C.ar    
  10 C10            1.1343     2.1082     0.0025 C.ar    
  11 N11            2.8980    -2.1587    -0.0373 N.am    
  12 N12            3.4183    -0.8621    -0.0353 N.2     
  13 C13            1.5480    -2.1223    -0.0242 C.2     
  14 O14            0.7891    -3.0778    -0.0220 O.2     
  15 C15           -1.3130     2.0200     0.0192 C.3     
  16 C16           -1.7510     2.2460     1.4433 C.ar    
  17 C17           -1.3941     3.4102     2.0985 C.ar    
  18 C18           -1.7941     3.6201     3.4037 C.ar    
  19 C19           -2.5556     2.6610     4.0577 C.ar    
  20 C20           -2.9127     1.4933     3.3971 C.ar    
  21 C21           -2.5138     1.2912     2.0903 C.ar    
  22 N22           -2.9627     2.8710     5.3826 N.pl3   
  23 N23           -2.6751     3.9969     6.1649 N.2     
  24 C24           -3.2238     3.8290     7.3411 C.2     
  25 C25           -3.8780     2.5921     7.3467 C.2     
  26 C26           -3.7074     2.0251     6.1299 C.2     
  27 C27            3.6663    -3.3286    -0.0514 C.ar    
  28 C28            4.6153    -3.5263    -1.0464 C.ar    
  29 C29            5.3719    -4.6813    -1.0572 C.ar    
  30 C30            5.1857    -5.6409    -0.0787 C.ar    
  31 C31            4.2416    -5.4475     0.9129 C.ar    
  32 C32            3.4855    -4.2918     0.9327 C.ar    
  33 C33            4.8185    -2.4815    -2.1133 C.3     
  34 C34            5.7894    -1.4144    -1.6037 C.3     
  35 C35            5.9957    -0.3537    -2.6869 C.3     
  36 O36            6.9025     0.6430    -2.2110 O.3     
  37 H37           -0.9340    -0.5427     0.0085 H       
  38 H38            4.5247     1.8060    -0.0322 H       
  39 H39            4.3420     4.2595    -0.0197 H       
  40 H40            2.1307     5.3347     0.0078 H       
  41 H41            0.0858     3.9794     0.0215 H       
  42 H42           -1.2230     2.9797    -0.4899 H       
  43 H43           -2.0510     1.4040    -0.4946 H       
  44 H44           -0.8017     4.1560     1.5892 H       
  45 H45           -1.5144     4.5293     3.9152 H       
  46 H46           -3.5050     0.7454     3.9032 H       
  47 H47           -2.7945     0.3847     1.5746 H       
  48 H48           -3.1788     4.5249     8.1657 H       
  49 H49           -4.4260     2.1670     8.1745 H       
  50 H50           -4.0946     1.0679     5.8132 H       
  51 H51            6.1096    -4.8358    -1.8307 H       
  52 H52            5.7787    -6.5435    -0.0893 H       
  53 H53            4.0984    -6.1989     1.6753 H       
  54 H54            2.7516    -4.1391     1.7102 H       
  55 H55            5.2302    -2.9502    -3.0071 H       
  56 H56            3.8621    -2.0173    -2.3541 H       
  57 H57            5.3777    -0.9457    -0.7099 H       
  58 H58            6.7457    -1.8786    -1.3629 H       
  59 H59            6.4074    -0.8224    -3.5807 H       
  60 H60            5.0393     0.1105    -2.9277 H       
  61 H61            7.0802     1.3491    -2.8473 H       
@<TRIPOS>BOND
   1    1    2 1
   2    1   10 1
   3    1   15 1
   4    2    3 2
   5    2   37 1
   6    3    4 1
   7    3   13 1
   8    4    5 1
   9    4   12 2
  10    5    6 ar
  11    5   10 ar
  12    6    7 ar
  13    6   38 1
  14    7    8 ar
  15    7   39 1
  16    8    9 ar
  17    8   40 1
  18    9   10 ar
  19    9   41 1
  20   11   12 1
  21   11   13 am
  22   11   27 1
  23   13   14 2
  24   15   16 1
  25   15   42 1
  26   15   43 1
  27   16   17 ar
  28   16   21 ar
  29   17   18 ar
  30   17   44 1
  31   18   19 ar
  32   18   45 1
  33   19   20 ar
  34   19   22 1
  35   20   21 ar
  36   20   46 1
  37   21   47 1
  38   22   23 1
  39   22   26 1
  40   23   24 2
  41   24   25 1
  42   24   48 1
  43   25   26 2
  44   25   49 1
  45   26   50 1
  46   27   28 ar
  47   27   32 ar
  48   28   29 ar
  49   28   33 1
  50   29   30 ar
  51   29   51 1
  52   30   31 ar
  53   30   52 1
  54   31   32 ar
  55   31   53 1
  56   32   54 1
  57   33   34 1
  58   33   55 1
  59   33   56 1
  60   34   35 1
  61   34   57 1
  62   34   58 1
  63   35   36 1
  64   35   59 1
  65   35   60 1
  66   36   61 1

#	End of record

