#	Name: ASD03430672
#	Creating user name:	WinNT
#	Creation time:	15. 06. 2019 20:41

#	Modifying user name:	WinNT
#	Modification time:	15. 06. 2019 20:41

#	Program:	/corina/corina34_cracker 3.40 0067  02.08.2006

@<TRIPOS>MOLECULE
ASD03430672
  59   64    0    0    0
SMALL
NO_CHARGES


@<TRIPOS>ATOM
   1 C1             2.6552     0.3884    -0.0132 C.ar    
   2 C2             2.0895    -0.8720    -0.0490 C.ar    
   3 C3             2.8795    -1.9810    -0.2649 C.ar    
   4 C4             4.2549    -1.8492    -0.4381 C.ar    
   5 C5             4.8195    -0.5781    -0.4062 C.ar    
   6 C6             4.0234     0.5343    -0.1953 C.ar    
   7 O7             4.8499    -3.0636    -0.6075 O.3     
   8 C8             2.5717    -3.4496    -0.3823 C.3     
   9 C9             3.8544    -4.0308    -0.9931 C.3     
  10 C10            0.9793    -4.6284     0.7989 C.ar    
  11 C11            2.2493    -4.0745     0.9424 C.ar    
  12 C12            1.3732    -3.7119    -1.2485 C.2     
  13 N13            0.4954    -4.3996    -0.4913 N.am    
  14 O14            1.2242    -3.3713    -2.4030 O.2     
  15 C15            2.9271    -4.1769     2.1362 C.ar    
  16 C16            2.3486    -4.8343     3.2078 C.ar    
  17 C17            1.0885    -5.3879     3.0765 C.ar    
  18 C18            0.4051    -5.2881     1.8822 C.ar    
  19 C19           -0.8136    -4.8545    -0.9664 C.3     
  20 C20            1.7891     1.6001     0.2163 C.3     
  21 O21            4.5828     1.7724    -0.1663 O.3     
  22 C22           -1.8995    -4.1864    -0.1629 C.ar    
  23 C23           -0.9724    -4.4957    -2.4214 C.ar    
  24 C24            5.9963     1.8504    -0.3608 C.3     
  25 C25           -3.0439    -4.8871     0.1694 C.ar    
  26 C26           -1.7488    -2.8748     0.2467 C.ar    
  27 C27           -2.7448    -2.2620     0.9837 C.ar    
  28 C28           -3.8919    -2.9607     1.3108 C.ar    
  29 C29           -4.0400    -4.2743     0.9064 C.ar    
  30 C30           -0.9337    -5.4856    -3.3855 C.ar    
  31 C31           -1.1624    -3.1775    -2.7915 C.ar    
  32 C32           -1.3081    -2.8484    -4.1262 C.ar    
  33 C33           -1.2633    -3.8375    -5.0908 C.ar    
  34 C34           -1.0793    -5.1565    -4.7202 C.ar    
  35 H35            1.0253    -0.9886     0.0929 H       
  36 H36            5.8837    -0.4589    -0.5464 H       
  37 H37            3.7734    -4.0913    -2.0784 H       
  38 H38            4.0783    -5.0082    -0.5655 H       
  39 H39            3.9115    -3.7440     2.2365 H       
  40 H40            2.8804    -4.9150     4.1443 H       
  41 H41            0.6372    -5.9013     3.9127 H       
  42 H42           -0.5788    -5.7233     1.7873 H       
  43 H43           -0.8873    -5.9356    -0.8486 H       
  44 H44            1.7206     1.8004     1.2855 H       
  45 H45            2.2282     2.4612    -0.2873 H       
  46 H46            0.7920     1.4149    -0.1833 H       
  47 H47            6.5024     1.2821     0.4197 H       
  48 H48            6.2524     1.4361    -1.3359 H       
  49 H49            6.3125     2.8925    -0.3144 H       
  50 H50           -3.1599    -5.9131    -0.1471 H       
  51 H51           -0.8526    -2.3289    -0.0088 H       
  52 H52           -2.6267    -1.2375     1.3043 H       
  53 H53           -4.6699    -2.4821     1.8869 H       
  54 H54           -4.9361    -4.8202     1.1619 H       
  55 H55           -0.7893    -6.5160    -3.0961 H       
  56 H56           -1.1975    -2.4047    -2.0379 H       
  57 H57           -1.4573    -1.8186    -4.4153 H       
  58 H58           -1.3775    -3.5805    -6.1335 H       
  59 H59           -1.0443    -5.9293    -5.4739 H       
@<TRIPOS>BOND
   1    1    2 ar
   2    1    6 ar
   3    1   20 1
   4    2    3 ar
   5    2   35 1
   6    3    4 ar
   7    3    8 1
   8    4    5 ar
   9    4    7 1
  10    5    6 ar
  11    5   36 1
  12    6   21 1
  13    7    9 1
  14    8    9 1
  15    8   11 1
  16    8   12 1
  17    9   37 1
  18    9   38 1
  19   10   11 ar
  20   10   13 1
  21   10   18 ar
  22   11   15 ar
  23   12   13 am
  24   12   14 2
  25   13   19 1
  26   15   16 ar
  27   15   39 1
  28   16   17 ar
  29   16   40 1
  30   17   18 ar
  31   17   41 1
  32   18   42 1
  33   19   22 1
  34   19   23 1
  35   19   43 1
  36   20   44 1
  37   20   45 1
  38   20   46 1
  39   21   24 1
  40   22   25 ar
  41   22   26 ar
  42   23   30 ar
  43   23   31 ar
  44   24   47 1
  45   24   48 1
  46   24   49 1
  47   25   29 ar
  48   25   50 1
  49   26   27 ar
  50   26   51 1
  51   27   28 ar
  52   27   52 1
  53   28   29 ar
  54   28   53 1
  55   29   54 1
  56   30   34 ar
  57   30   55 1
  58   31   32 ar
  59   31   56 1
  60   32   33 ar
  61   32   57 1
  62   33   34 ar
  63   33   58 1
  64   34   59 1

#	End of record

