#	Name: ASD02030477
#	Creating user name:	WinNT
#	Creation time:	15. 06. 2019 20:15

#	Modifying user name:	WinNT
#	Modification time:	15. 06. 2019 20:15

#	Program:	/corina/corina34_cracker 3.40 0067  02.08.2006

@<TRIPOS>MOLECULE
ASD02030477
  53   54    0    0    0
SMALL
NO_CHARGES


@<TRIPOS>ATOM
   1 N1             0.0060     1.5111     0.0833 N.am    
   2 C2            -0.0147     0.0434     0.0117 C.3     
   3 C3             0.7680    -0.3977    -1.2314 C.3     
   4 N4             2.0648     0.2937    -1.2396 N.am    
   5 C5             2.0855     1.7614    -1.1679 C.3     
   6 C6             1.3029     2.2025     0.0751 C.3     
   7 C7            -1.1439     2.2109     0.1497 C.2     
   8 O8            -2.2107     1.6371     0.0543 O.2     
   9 O9            -1.1106     3.5458     0.3218 O.3     
  10 C10            3.2146    -0.4059    -1.3111 C.2     
  11 O11            3.1849    -1.6192    -1.3695 O.2     
  12 O12            4.3961     0.2397    -1.3178 O.3     
  13 C13            0.6401    -0.5412     1.2649 C.3     
  14 C14           -1.4608    -0.4453    -0.0918 C.3     
  15 C15           -2.3874     4.2345     0.3842 C.3     
  16 C16           -2.1531     5.7104     0.5785 C.ar    
  17 C17           -2.0214     6.5398    -0.5196 C.ar    
  18 C18           -1.8065     7.8936    -0.3413 C.ar    
  19 C19           -1.7237     8.4182     0.9349 C.ar    
  20 C20           -1.8563     7.5890     2.0330 C.ar    
  21 C21           -2.0755     6.2358     1.8547 C.ar    
  22 C22            5.5935    -0.5777    -1.3966 C.3     
  23 C23            5.5664    -1.3989    -2.6873 C.3     
  24 C24            6.8286     0.3252    -1.3924 C.3     
  25 C25            5.6473    -1.5209    -0.1931 C.3     
  26 H26            0.9281    -1.4754    -1.1995 H       
  27 H27            0.2077    -0.1349    -2.1287 H       
  28 H28            3.1158     2.1096    -1.0942 H       
  29 H29            1.6190     2.1779    -2.0607 H       
  30 H30            1.1427     3.2802     0.0433 H       
  31 H31            1.8632     1.9397     0.9724 H       
  32 H32            0.0912    -0.2140     2.1479 H       
  33 H33            0.6236    -1.6296     1.2094 H       
  34 H34            1.6721    -0.1963     1.3301 H       
  35 H35           -1.9327    -0.0009    -0.9681 H       
  36 H36           -1.4715    -1.5313    -0.1849 H       
  37 H37           -2.0085    -0.1520     0.8038 H       
  38 H38           -2.9334     4.0725    -0.5452 H       
  39 H39           -2.9694     3.8459     1.2199 H       
  40 H40           -2.0861     6.1300    -1.5167 H       
  41 H41           -1.7029     8.5415    -1.1992 H       
  42 H42           -1.5550     9.4758     1.0742 H       
  43 H43           -1.7912     7.9987     3.0301 H       
  44 H44           -2.1828     5.5885     2.7126 H       
  45 H45            5.5281    -0.7269    -3.5447 H       
  46 H46            6.4653    -2.0125    -2.7464 H       
  47 H47            4.6865    -2.0422    -2.6902 H       
  48 H48            6.8479     0.9102    -0.4729 H       
  49 H49            7.7275    -0.2884    -1.4516 H       
  50 H50            6.7904     0.9972    -2.2498 H       
  51 H51            4.7673    -2.1642    -0.1961 H       
  52 H52            6.5462    -2.1346    -0.2523 H       
  53 H53            5.6666    -0.9359     0.7264 H       
@<TRIPOS>BOND
   1    1    2 1
   2    1    6 1
   3    1    7 am
   4    2    3 1
   5    2   13 1
   6    2   14 1
   7    3    4 1
   8    3   26 1
   9    3   27 1
  10    4    5 1
  11    4   10 am
  12    5    6 1
  13    5   28 1
  14    5   29 1
  15    6   30 1
  16    6   31 1
  17    7    8 2
  18    7    9 1
  19    9   15 1
  20   10   11 2
  21   10   12 1
  22   12   22 1
  23   13   32 1
  24   13   33 1
  25   13   34 1
  26   14   35 1
  27   14   36 1
  28   14   37 1
  29   15   16 1
  30   15   38 1
  31   15   39 1
  32   16   17 ar
  33   16   21 ar
  34   17   18 ar
  35   17   40 1
  36   18   19 ar
  37   18   41 1
  38   19   20 ar
  39   19   42 1
  40   20   21 ar
  41   20   43 1
  42   21   44 1
  43   22   23 1
  44   22   25 1
  45   22   24 1
  46   23   45 1
  47   23   46 1
  48   23   47 1
  49   24   48 1
  50   24   49 1
  51   24   50 1
  52   25   51 1
  53   25   52 1
  54   25   53 1

#	End of record

