#	Name: ASD03092636
#	Creating user name:	WinNT
#	Creation time:	15. 06. 2019 20:32

#	Modifying user name:	WinNT
#	Modification time:	15. 06. 2019 20:32

#	Program:	/corina/corina34_cracker 3.40 0067  02.08.2006

@<TRIPOS>MOLECULE
ASD03092636
  51   54    0    0    0
SMALL
NO_CHARGES


@<TRIPOS>ATOM
   1 C1             1.0917     1.6359    -0.8824 C.ar    
   2 C2             1.0112     0.2397    -1.0601 C.ar    
   3 C3             1.7582    -0.6023    -0.2068 C.ar    
   4 C4             2.5431    -0.0013     0.7755 C.ar    
   5 C5             2.5625     1.3810     0.8786 C.ar    
   6 N6             1.8579     2.1435     0.0716 N.ar    
   7 N7            -0.3013     1.1561    -2.5774 N.2     
   8 N8             0.2710     2.1937    -1.8320 N.pl3   
   9 C9             0.1292     0.0078    -2.1372 C.2     
  10 C10            1.7086    -2.0727    -0.3507 C.2     
  11 O11            0.6669    -2.6185    -0.6587 O.2     
  12 N12            2.8182    -2.8082    -0.1405 N.am    
  13 C13            3.6129    -4.9138    -1.0304 C.ar    
  14 C14            2.7539    -4.2039    -0.2010 C.ar    
  15 C15            1.8280    -4.9027     0.5696 C.ar    
  16 C16            1.8031    -6.2847     0.4756 C.ar    
  17 C17            2.6904    -6.9199    -0.3729 C.ar    
  18 N18            3.5555    -6.2290    -1.0897 N.ar    
  19 C19            0.8771    -4.1737     1.4836 C.3     
  20 C20            4.6164    -4.1720    -1.8754 C.3     
  21 C21            0.0153     4.4292    -0.9364 C.ar    
  22 C22            0.0458     3.5631    -2.0217 C.ar    
  23 C23           -0.1504     4.0762    -3.3012 C.ar    
  24 C24           -0.3690     5.4374    -3.4380 C.ar    
  25 C25           -0.3852     6.2354    -2.3094 C.ar    
  26 N26           -0.1959     5.7182    -1.1110 N.ar    
  27 C27           -0.6219     7.7170    -2.4504 C.3     
  28 C28            3.4124     2.0262     1.9428 C.3     
  29 C29           -0.2574    -1.3433    -2.6815 C.3     
  30 H30            3.1303    -0.6067     1.4502 H       
  31 H31            3.6615    -2.3695     0.0529 H       
  32 H32            1.0986    -6.8592     1.0587 H       
  33 H33            2.6754    -7.9971    -0.4497 H       
  34 H34           -0.0817    -4.0442     0.9817 H       
  35 H35            0.7344    -4.7527     2.3960 H       
  36 H36            1.2910    -3.1970     1.7341 H       
  37 H37            5.5709    -4.1279    -1.3511 H       
  38 H38            4.7469    -4.6918    -2.8246 H       
  39 H39            4.2570    -3.1600    -2.0618 H       
  40 H40            0.1617     4.0417     0.0610 H       
  41 H41           -0.1322     3.4290    -4.1657 H       
  42 H42           -0.5246     5.8701    -4.4152 H       
  43 H43           -1.6909     7.9214    -2.3908 H       
  44 H44           -0.1057     8.2453    -1.6487 H       
  45 H45           -0.2402     8.0559    -3.4135 H       
  46 H46            4.4084     2.2196     1.5446 H       
  47 H47            2.9558     2.9666     2.2518 H       
  48 H48            3.4875     1.3593     2.8017 H       
  49 H49           -1.0735    -1.7544    -2.0873 H       
  50 H50           -0.5792    -1.2390    -3.7177 H       
  51 H51            0.6007    -2.0136    -2.6333 H       
@<TRIPOS>BOND
   1    1    2 ar
   2    1    6 ar
   3    1    8 1
   4    2    3 ar
   5    2    9 1
   6    3    4 ar
   7    3   10 1
   8    4    5 ar
   9    4   30 1
  10    5    6 ar
  11    5   28 1
  12    7    8 1
  13    7    9 2
  14    8   22 1
  15    9   29 1
  16   10   11 2
  17   10   12 am
  18   12   14 1
  19   12   31 1
  20   13   14 ar
  21   13   18 ar
  22   13   20 1
  23   14   15 ar
  24   15   16 ar
  25   15   19 1
  26   16   17 ar
  27   16   32 1
  28   17   18 ar
  29   17   33 1
  30   19   34 1
  31   19   35 1
  32   19   36 1
  33   20   37 1
  34   20   38 1
  35   20   39 1
  36   21   22 ar
  37   21   26 ar
  38   21   40 1
  39   22   23 ar
  40   23   24 ar
  41   23   41 1
  42   24   25 ar
  43   24   42 1
  44   25   26 ar
  45   25   27 1
  46   27   43 1
  47   27   44 1
  48   27   45 1
  49   28   46 1
  50   28   47 1
  51   28   48 1
  52   29   49 1
  53   29   50 1
  54   29   51 1

#	End of record

