#	Name: ASD02039254
#	Creating user name:	WinNT
#	Creation time:	15. 06. 2019 20:17

#	Modifying user name:	WinNT
#	Modification time:	15. 06. 2019 20:17

#	Program:	/corina/corina34_cracker 3.40 0067  02.08.2006

@<TRIPOS>MOLECULE
ASD02039254
  44   47    0    0    0
SMALL
NO_CHARGES


@<TRIPOS>ATOM
   1 N1            -0.0160     1.3037    -0.0272 N.2     
   2 C2             0.0020    -0.0039     0.0001 C.2     
   3 C3             1.3718    -0.3810     0.0201 C.2     
   4 C4             2.0347     0.7972     0.0015 C.2     
   5 O5             1.1032     1.7614    -0.0268 O.3     
   6 N6            -1.0992    -0.8547     0.0080 N.pl3   
   7 C7            -0.9159    -2.2378    -0.1069 C.ar    
   8 C8             0.1064    -2.7394    -0.9019 C.ar    
   9 C9             0.2877    -4.1041    -1.0149 C.ar    
  10 C10           -0.5505    -4.9743    -0.3351 C.ar    
  11 C11           -1.5735    -4.4746     0.4606 C.ar    
  12 C12           -1.7525    -3.1085     0.5786 C.ar    
  13 O13            4.0142     1.0220    -1.3326 O.3     
  14 C14            5.3527     1.1902    -1.5020 C.ar    
  15 C15            6.1808     1.3212    -0.3901 C.ar    
  16 C16            7.5392     1.4920    -0.5426 C.ar    
  17 C17            8.0953     1.5348    -1.8165 C.ar    
  18 C18            7.2619     1.4027    -2.9433 C.ar    
  19 C19            5.8850     1.2247    -2.7755 C.ar    
  20 C20            3.5294     0.9895     0.0112 C.3     
  21 O21           -0.3712    -6.3182    -0.4476 O.3     
  22 N22            9.4538     1.7060    -1.9903 N.am    
  23 C23            9.9936     1.7487    -3.2208 C.2     
  24 C24            9.2017     1.6217    -4.3820 C.2     
  25 C25            7.8606     1.4507    -4.2786 C.2     
  26 O26           11.1974     1.9013    -3.3365 O.2     
  27 C27            0.6999    -6.7621    -1.2829 C.3     
  28 F28            0.4964    -6.2995    -2.5874 F       
  29 F29            1.9111    -6.2609    -0.7940 F       
  30 F30           -2.3901    -5.3229     1.1230 F       
  31 H31            1.7871    -1.3777     0.0450 H       
  32 H32           -1.9937    -0.4894     0.0930 H       
  33 H33            0.7596    -2.0622    -1.4322 H       
  34 H34            1.0827    -4.4934    -1.6336 H       
  35 H35           -2.5475    -2.7192     1.1973 H       
  36 H36            5.7538     1.2890     0.6014 H       
  37 H37            8.1720     1.5929     0.3268 H       
  38 H38            5.2412     1.1225    -3.6366 H       
  39 H39            3.7716     1.9291     0.5077 H       
  40 H40            3.9984     0.1641     0.5468 H       
  41 H41           10.0273     1.7973    -1.2133 H       
  42 H42            9.6656     1.6605    -5.3565 H       
  43 H43            7.2473     1.3519    -5.1621 H       
  44 H44            0.7318    -7.8516    -1.2846 H       
@<TRIPOS>BOND
   1    1    2 2
   2    1    5 1
   3    2    3 1
   4    2    6 1
   5    3    4 2
   6    3   31 1
   7    4    5 1
   8    4   20 1
   9    6    7 1
  10    6   32 1
  11    7    8 ar
  12    7   12 ar
  13    8    9 ar
  14    8   33 1
  15    9   10 ar
  16    9   34 1
  17   10   11 ar
  18   10   21 1
  19   11   12 ar
  20   11   30 1
  21   12   35 1
  22   13   14 1
  23   13   20 1
  24   14   15 ar
  25   14   19 ar
  26   15   16 ar
  27   15   36 1
  28   16   17 ar
  29   16   37 1
  30   17   18 ar
  31   17   22 1
  32   18   19 ar
  33   18   25 1
  34   19   38 1
  35   20   39 1
  36   20   40 1
  37   21   27 1
  38   22   23 am
  39   22   41 1
  40   23   24 1
  41   23   26 2
  42   24   25 2
  43   24   42 1
  44   25   43 1
  45   27   28 1
  46   27   29 1
  47   27   44 1

#	End of record

