#	Name: ASD02198142
#	Creating user name:	WinNT
#	Creation time:	15. 06. 2019 20:18

#	Modifying user name:	WinNT
#	Modification time:	15. 06. 2019 20:18

#	Program:	/corina/corina34_cracker 3.40 0067  02.08.2006

@<TRIPOS>MOLECULE
ASD02198142
  55   58    0    0    0
SMALL
NO_CHARGES


@<TRIPOS>ATOM
   1 C1            -0.0156     1.3780    -0.0289 C.2     
   2 C2             0.0076    -0.0009    -0.0142 C.2     
   3 C3            -1.1781    -0.8005     0.0591 C.1     
   4 S4             1.5642     2.0122    -0.1222 S.3     
   5 C5             2.2780     0.4076    -0.1425 C.2     
   6 C6             1.2877    -0.5457    -0.0776 C.2     
   7 C7             3.6582     0.1369    -0.2145 C.2     
   8 C8             4.6260     1.2492    -0.2795 C.2     
   9 O9             4.0538    -1.0171    -0.2232 O.2     
  10 N10            1.5385    -1.9085    -0.0759 N.pl3   
  11 N11           -1.1605     2.1398     0.0194 N.pl3   
  12 N12           -2.1187    -1.4349     0.1173 N.1     
  13 O13            4.3439     2.5651    -0.2783 O.3     
  14 C14           -1.0711     3.5242     0.1315 C.ar    
  15 C15           -1.9816     4.3357    -0.5396 C.ar    
  16 N16            5.3460     3.2381    -0.3404 N.2     
  17 C17            6.4266     2.4985    -0.3915 C.2     
  18 C18            5.9882     1.1478    -0.3469 C.2     
  19 C19            7.8275     2.9762    -0.4733 C.2     
  20 O20            8.7401     2.1765    -0.5150 O.2     
  21 O21            8.0879     4.2969    -0.5014 O.3     
  22 C22           -0.0749     4.0944     0.9192 C.ar    
  23 C23           -0.8937     6.2807     0.3555 C.ar    
  24 C24            9.4828     4.6922    -0.5820 C.3     
  25 C25            9.5798     6.2190    -0.6032 C.3     
  26 C26            0.0158     5.4630     1.0324 C.ar    
  27 C27           -1.8961     5.7050    -0.4304 C.ar    
  28 C28           -0.7995     7.7483     0.4752 C.2     
  29 N29           -1.6771     8.5354    -0.1781 N.am    
  30 O30            0.0699     8.2477     1.1631 O.2     
  31 C31           -1.5836     9.9926    -0.0593 C.3     
  32 C32           -0.6151    10.5434    -1.0833 C.2     
  33 C33           -2.9392    10.6483    -0.4045 C.3     
  34 C34           -2.5130    11.8036    -1.3389 C.3     
  35 O35           -1.2655    11.3447    -1.9390 O.3     
  36 O36            0.5673    10.2978    -1.1237 O.2     
  37 H37            2.4512    -2.2337    -0.1222 H       
  38 H38            0.8014    -2.5373    -0.0285 H       
  39 H39           -2.0299     1.7119    -0.0248 H       
  40 H40           -2.7557     3.8903    -1.1469 H       
  41 H41            6.5895     0.2510    -0.3677 H       
  42 H42            0.6272     3.4621     1.4422 H       
  43 H43           10.0205     4.3060     0.2840 H       
  44 H44            9.9230     4.2874    -1.4932 H       
  45 H45            9.0421     6.6052    -1.4692 H       
  46 H46            9.1395     6.6238     0.3080 H       
  47 H47           10.6269     6.5157    -0.6637 H       
  48 H48            0.7887     5.9048     1.6439 H       
  49 H49           -2.6030     6.3340    -0.9510 H       
  50 H50           -2.3707     8.1371    -0.7269 H       
  51 H51           -1.2708    10.2712     0.9470 H       
  52 H52           -3.5885     9.9458    -0.9269 H       
  53 H53           -3.4239    11.0333     0.4926 H       
  54 H54           -3.2673    11.9688    -2.1083 H       
  55 H55           -2.3468    12.7154    -0.7654 H       
@<TRIPOS>BOND
   1    1    2 2
   2    1    4 1
   3    1   11 1
   4    2    3 1
   5    2    6 1
   6    3   12 3
   7    4    5 1
   8    5    6 2
   9    5    7 1
  10    6   10 1
  11    7    8 1
  12    7    9 2
  13    8   13 1
  14    8   18 2
  15   10   37 1
  16   10   38 1
  17   11   14 1
  18   11   39 1
  19   13   16 1
  20   14   15 ar
  21   14   22 ar
  22   15   27 ar
  23   15   40 1
  24   16   17 2
  25   17   18 1
  26   17   19 1
  27   18   41 1
  28   19   20 2
  29   19   21 1
  30   21   24 1
  31   22   26 ar
  32   22   42 1
  33   23   28 1
  34   23   26 ar
  35   23   27 ar
  36   24   25 1
  37   24   43 1
  38   24   44 1
  39   25   45 1
  40   25   46 1
  41   25   47 1
  42   26   48 1
  43   27   49 1
  44   28   29 am
  45   28   30 2
  46   29   31 1
  47   29   50 1
  48   31   32 1
  49   31   33 1
  50   31   51 1
  51   32   36 2
  52   32   35 1
  53   33   34 1
  54   33   52 1
  55   33   53 1
  56   34   35 1
  57   34   54 1
  58   34   55 1

#	End of record

