#	Name: ASD01910988
#	Creating user name:	WinNT
#	Creation time:	15. 06. 2019 19:56

#	Modifying user name:	WinNT
#	Modification time:	15. 06. 2019 19:56

#	Program:	/corina/corina34_cracker 3.40 0067  02.08.2006

@<TRIPOS>MOLECULE
ASD01910988
  51   54    0    0    0
SMALL
NO_CHARGES


@<TRIPOS>ATOM
   1 N1             0.2559     1.0802    -0.0596 N.3     
   2 C2             0.0698    -0.3425     0.2555 C.3     
   3 C3            -1.4259    -0.6356     0.4146 C.3     
   4 N4            -2.1244    -0.1695    -0.7929 N.am    
   5 C5            -1.8802     1.2068    -1.2505 C.3     
   6 C6            -0.3667     1.4273    -1.3441 C.3     
   7 C7            -2.9656    -0.9822    -1.4626 C.2     
   8 C8            -3.7563    -0.4560    -2.5959 C.ar    
   9 C9            -3.9413    -1.2339    -3.7410 C.ar    
  10 C10           -4.6791    -0.7445    -4.8011 C.ar    
  11 C11           -5.2388     0.5154    -4.7378 C.ar    
  12 C12           -5.0619     1.3056    -3.5975 C.ar    
  13 C13           -4.3231     0.8144    -2.5212 C.ar    
  14 C14           -5.6423     2.6131    -3.5329 C.1     
  15 O15           -3.0742    -2.1477    -1.1350 O.2     
  16 C16           -6.1181     3.6850    -3.4800 C.1     
  17 C17           -6.6985     4.9926    -3.4154 C.ar    
  18 N18           -6.5262     5.7382    -2.3282 N.ar    
  19 C19           -7.0435     6.9456    -2.2309 C.ar    
  20 C20           -7.7895     7.4847    -3.2630 C.ar    
  21 C21           -7.9949     6.7408    -4.4175 C.ar    
  22 C22           -7.4370     5.4780    -4.4978 C.ar    
  23 C23            1.6049     1.4204    -0.0513 C.ar    
  24 C24           -6.0418     1.0409    -5.8997 C.3     
  25 N25            2.5019     0.5560    -0.4984 N.ar    
  26 C26            3.7913     0.8385    -0.5082 C.ar    
  27 C27            4.2532     2.0561    -0.0483 C.ar    
  28 C28            3.3441     2.9922     0.4298 C.ar    
  29 C29            1.9985     2.6692     0.4220 C.ar    
  30 Cl30           5.9519     2.4134    -0.0668 Cl      
  31 Cl31           0.8186     3.8004     1.0068 Cl      
  32 H32            0.4755    -0.9503    -0.5533 H       
  33 H33            0.5879    -0.5801     1.1846 H       
  34 H34           -1.5781    -1.7083     0.5346 H       
  35 H35           -1.8115    -0.1084     1.2872 H       
  36 H36           -2.3328     1.3522    -2.2314 H       
  37 H37           -2.3095     1.9111    -0.5380 H       
  38 H38           -0.1651     2.4734    -1.5750 H       
  39 H39            0.0451     0.7949    -2.1306 H       
  40 H40           -3.5060    -2.2206    -3.7978 H       
  41 H41           -4.8183    -1.3506    -5.6841 H       
  42 H42           -4.1830     1.4199    -1.6379 H       
  43 H43           -6.8832     7.5227    -1.3321 H       
  44 H44           -8.2091     8.4756    -3.1718 H       
  45 H45           -8.5740     7.1414    -5.2363 H       
  46 H46           -7.5767     4.8726    -5.3813 H       
  47 H47           -7.0891     0.7678    -5.7708 H       
  48 H48           -5.9519     2.1264    -5.9421 H       
  49 H49           -5.6650     0.6087    -6.8268 H       
  50 H50            4.4942     0.1079    -0.8803 H       
  51 H51            3.6796     3.9516     0.7949 H       
@<TRIPOS>BOND
   1    1    2 1
   2    1   23 1
   3    1    6 1
   4    2    3 1
   5    2   32 1
   6    2   33 1
   7    3    4 1
   8    3   34 1
   9    3   35 1
  10    4    5 1
  11    4    7 am
  12    5    6 1
  13    5   36 1
  14    5   37 1
  15    6   38 1
  16    6   39 1
  17    7    8 1
  18    7   15 2
  19    8    9 ar
  20    8   13 ar
  21    9   10 ar
  22    9   40 1
  23   10   11 ar
  24   10   41 1
  25   11   12 ar
  26   11   24 1
  27   12   13 ar
  28   12   14 1
  29   13   42 1
  30   14   16 3
  31   16   17 1
  32   17   18 ar
  33   17   22 ar
  34   18   19 ar
  35   19   20 ar
  36   19   43 1
  37   20   21 ar
  38   20   44 1
  39   21   22 ar
  40   21   45 1
  41   22   46 1
  42   23   25 ar
  43   23   29 ar
  44   24   47 1
  45   24   48 1
  46   24   49 1
  47   25   26 ar
  48   26   27 ar
  49   26   50 1
  50   27   28 ar
  51   27   30 1
  52   28   29 ar
  53   28   51 1
  54   29   31 1

#	End of record

