#	Name: ASD01151012
#	Creating user name:	WinNT
#	Creation time:	15. 06. 2019 19:05

#	Modifying user name:	WinNT
#	Modification time:	15. 06. 2019 19:05

#	Program:	/corina/corina34_cracker 3.40 0067  02.08.2006

@<TRIPOS>MOLECULE
ASD01151012
  32   32    0    0    0
SMALL
NO_CHARGES


@<TRIPOS>ATOM
   1 C1            -0.0168     1.3845     0.0097 C.2     
   2 C2             0.0021    -0.0041     0.0020 C.2     
   3 N3            -1.2696    -0.4207     0.0119 N.2     
   4 C4            -2.0752     0.6089     0.0251 C.2     
   5 N5            -1.3581     1.7463     0.0305 N.pl3   
   6 C6            -3.5802     0.5324     0.0386 C.3     
   7 C7            -4.0762     0.4990     1.4856 C.3     
   8 C8            -1.8911     3.1108     0.0449 C.3     
   9 C9             1.0996     2.2517     0.0037 C.2     
  10 O10            0.9155     3.5890     0.0131 O.3     
  11 O11            2.2269     1.7926    -0.0100 O.2     
  12 C12            2.0883     4.4054     0.0062 C.3     
  13 C13            1.6828     5.8806     0.0187 C.3     
  14 N14            1.1306    -0.8103    -0.0135 N.pl3   
  15 C15           -5.6042     0.4213     1.4992 C.3     
  16 H16           -3.9929     1.4054    -0.4669 H       
  17 H17           -3.9026    -0.3722    -0.4770 H       
  18 H18           -3.6635    -0.3740     1.9911 H       
  19 H19           -3.7538     1.4036     2.0011 H       
  20 H20           -2.0174     3.4407     1.0761 H       
  21 H21           -1.1972     3.7773    -0.4673 H       
  22 H22           -2.8552     3.1297    -0.4632 H       
  23 H23            2.6887     4.1862     0.8891 H       
  24 H24            2.6713     4.1963    -0.8907 H       
  25 H25            1.0824     6.0998    -0.8642 H       
  26 H26            1.0998     6.0897     0.9156 H       
  27 H27            2.5774     6.5033     0.0134 H       
  28 H28            2.0136    -0.4087    -0.0201 H       
  29 H29            1.0370    -1.7757    -0.0177 H       
  30 H30           -6.0169     1.2944     0.9937 H       
  31 H31           -5.9266    -0.4833     0.9837 H       
  32 H32           -5.9576     0.3976     2.5301 H       
@<TRIPOS>BOND
   1    1    2 2
   2    1    9 1
   3    1    5 1
   4    2    3 1
   5    2   14 1
   6    3    4 2
   7    4    5 1
   8    4    6 1
   9    5    8 1
  10    6    7 1
  11    6   16 1
  12    6   17 1
  13    7   15 1
  14    7   18 1
  15    7   19 1
  16    8   20 1
  17    8   21 1
  18    8   22 1
  19    9   10 1
  20    9   11 2
  21   10   12 1
  22   12   13 1
  23   12   23 1
  24   12   24 1
  25   13   25 1
  26   13   26 1
  27   13   27 1
  28   14   28 1
  29   14   29 1
  30   15   30 1
  31   15   31 1
  32   15   32 1

#	End of record

