#	Name: ASD03050002
#	Creating user name:	WinNT
#	Creation time:	15. 06. 2019 20:26

#	Modifying user name:	WinNT
#	Modification time:	15. 06. 2019 20:26

#	Program:	/corina/corina34_cracker 3.40 0067  02.08.2006

@<TRIPOS>MOLECULE
ASD03050002
  55   56    0    0    0
SMALL
NO_CHARGES


@<TRIPOS>ATOM
   1 C1            -0.2119     1.3199    -0.4263 C.ar    
   2 C2            -0.0838    -0.0433    -0.7343 C.ar    
   3 N3             0.8541     2.0138    -0.0305 N.ar    
   4 N4             1.0998    -0.6351    -0.6298 N.ar    
   5 C5             2.1563     0.0634    -0.2348 C.ar    
   6 C6             2.0251     1.4226     0.0716 C.ar    
   7 C7            -1.5249     1.9854    -0.5465 C.2     
   8 O8            -2.4762     1.3777    -1.0057 O.2     
   9 N9            -1.6702     3.2582    -0.1505 N.2     
  10 C10           -2.2007     4.1506    -0.9719 C.2     
  11 N11           -2.6699     3.7604    -2.1919 N.pl3   
  12 N12           -2.2781     5.4602    -0.5984 N.pl3   
  13 Cl13           3.4114     2.3314     0.5872 Cl      
  14 N14            3.3913    -0.5538    -0.1252 N.3     
  15 C15            4.6356    -2.6626    -0.0816 C.3     
  16 C16            3.2492    -2.0157    -0.1048 C.3     
  17 C17            2.4698    -2.4351     1.1432 C.3     
  18 C18            4.2907    -0.1272    -1.2054 C.3     
  19 C19            3.6294    -0.4009    -2.5577 C.3     
  20 N20            4.4741     0.1295    -3.6307 N.am    
  21 C21            4.0896     0.0026    -4.9162 C.2     
  22 C22            4.9398     0.5365    -5.9962 C.ar    
  23 C23            4.5293     0.3989    -7.3339 C.ar    
  24 C24            5.3068     0.8894    -8.3575 C.ar    
  25 C25            6.5321     1.5388    -8.0569 C.ar    
  26 C26            6.9434     1.6730    -6.6574 C.ar    
  27 C27            6.1432     1.1793    -5.6747 C.ar    
  28 O28            3.0415    -0.5521    -5.1854 O.2     
  29 O29            3.3571    -0.2232    -7.6176 O.3     
  30 N30            7.2929     2.0163    -9.0276 N.2     
  31 N31            8.2621     2.5295    -8.7812 N.1     
  32 N32            9.2313     3.0426    -8.5348 N.pl3   
  33 N33           -1.1884    -0.7686    -1.1455 N.pl3   
  34 H34           -2.5421     2.8466    -2.4910 H       
  35 H35           -3.1312     4.3968    -2.7603 H       
  36 H36           -1.9445     5.7377     0.2692 H       
  37 H37           -2.6668     6.1141    -1.2003 H       
  38 H38            5.2103    -2.2603     0.7527 H       
  39 H39            4.5313    -3.7412     0.0356 H       
  40 H40            5.1528    -2.4470    -1.0165 H       
  41 H41            2.7114    -2.3410    -0.9954 H       
  42 H42            1.4459    -2.0682     1.0724 H       
  43 H43            2.4619    -3.5225     1.2183 H       
  44 H44            2.9465    -2.0133     2.0281 H       
  45 H45            4.4936     0.9394    -1.1094 H       
  46 H46            5.2264    -0.6824    -1.1396 H       
  47 H47            3.5053    -1.4756    -2.6906 H       
  48 H48            2.6538     0.0842    -2.5898 H       
  49 H49            5.3101     0.5720    -3.4160 H       
  50 H50            4.9867     0.7805    -9.3832 H       
  51 H51            7.8724     2.1640    -6.4077 H       
  52 H52            6.4390     1.2789    -4.6408 H       
  53 H53            2.5945     0.3705    -7.6498 H       
  54 H54           -2.0694    -0.3631    -1.1264 H       
  55 H55           -1.0816    -1.6824    -1.4528 H       
@<TRIPOS>BOND
   1    1    2 ar
   2    1    3 ar
   3    1    7 1
   4    2    4 ar
   5    2   33 1
   6    3    6 ar
   7    4    5 ar
   8    5    6 ar
   9    5   14 1
  10    6   13 1
  11    7    8 2
  12    7    9 1
  13    9   10 2
  14   10   11 1
  15   10   12 1
  16   11   34 1
  17   11   35 1
  18   12   36 1
  19   12   37 1
  20   14   16 1
  21   14   18 1
  22   15   16 1
  23   15   38 1
  24   15   39 1
  25   15   40 1
  26   16   17 1
  27   16   41 1
  28   17   42 1
  29   17   43 1
  30   17   44 1
  31   18   19 1
  32   18   45 1
  33   18   46 1
  34   19   20 1
  35   19   47 1
  36   19   48 1
  37   20   21 am
  38   20   49 1
  39   21   22 1
  40   21   28 2
  41   22   23 ar
  42   22   27 ar
  43   23   24 ar
  44   23   29 1
  45   24   25 ar
  46   24   50 1
  47   25   26 ar
  48   25   30 1
  49   26   27 ar
  50   26   51 1
  51   27   52 1
  52   29   53 1
  53   30   31 2
  54   31   32 2
  55   33   54 1
  56   33   55 1

#	End of record

