#	Name: ASD01940099
#	Creating user name:	WinNT
#	Creation time:	15. 06. 2019 20:11

#	Modifying user name:	WinNT
#	Modification time:	15. 06. 2019 20:11

#	Program:	/corina/corina34_cracker 3.40 0067  02.08.2006

@<TRIPOS>MOLECULE
ASD01940099
  40   41    0    0    0
SMALL
NO_CHARGES


@<TRIPOS>ATOM
   1 C1             0.6333     1.2190    -1.5104 C.ar    
   2 C2             0.8040    -0.1553    -1.3797 C.ar    
   3 C3             0.6124    -0.9830    -2.4780 C.ar    
   4 C4             0.2531    -0.4402    -3.6963 C.ar    
   5 C5             0.0842     0.9268    -3.8243 C.ar    
   6 C6             0.2684     1.7550    -2.7317 C.ar    
   7 I7            -0.4601     1.7438    -5.6751 I       
   8 F8             0.8182     2.0281    -0.4444 F       
   9 N9             1.1683    -0.7021    -0.1448 N.pl3   
  10 C10            1.2154    -2.0824     0.0176 C.ar    
  11 C11            2.3694    -2.7962    -0.3424 C.ar    
  12 C12            2.4051    -4.1839    -0.1740 C.ar    
  13 C13            1.3125    -4.8425     0.3424 C.ar    
  14 C14            0.1708    -4.1359     0.6981 C.ar    
  15 C15            0.1222    -2.7617     0.5428 C.ar    
  16 F16           -0.9920    -2.0816     0.8912 F       
  17 F17           -0.8960    -4.7931     1.2033 F       
  18 C18            3.5363    -2.0871    -0.8953 C.2     
  19 N19            4.6543    -2.7714    -1.2088 N.am    
  20 O20            3.4909    -0.8842    -1.0688 O.2     
  21 O21            5.7760    -2.0898    -1.7402 O.3     
  22 C22            6.8898    -2.9382    -2.0262 C.3     
  23 C23            8.0375    -2.0996    -2.5923 C.3     
  24 C24            9.2708    -2.9850    -2.7816 C.3     
  25 O25           10.3753    -2.1803    -3.1995 O.3     
  26 O26            7.6486    -1.5488    -3.8522 O.3     
  27 H27            0.7445    -2.0504    -2.3798 H       
  28 H28            0.1040    -1.0842    -4.5505 H       
  29 H29            0.1358     2.8219    -2.8348 H       
  30 H30            1.3881    -0.1186     0.5982 H       
  31 H31            3.2898    -4.7388    -0.4494 H       
  32 H32            1.3429    -5.9143     0.4714 H       
  33 H33            4.6906    -3.7308    -1.0705 H       
  34 H34            7.2166    -3.4299    -1.1099 H       
  35 H35            6.5949    -3.6910    -2.7572 H       
  36 H36            8.2731    -1.2916    -1.8996 H       
  37 H37            9.5145    -3.4751    -1.8390 H       
  38 H38            9.0634    -3.7395    -3.5404 H       
  39 H39           11.1932    -2.6769    -3.3391 H       
  40 H40            7.4240    -2.2121    -4.5190 H       
@<TRIPOS>BOND
   1    1    2 ar
   2    1    8 1
   3    1    6 ar
   4    2    3 ar
   5    2    9 1
   6    3    4 ar
   7    3   27 1
   8    4    5 ar
   9    4   28 1
  10    5    6 ar
  11    5    7 1
  12    6   29 1
  13    9   10 1
  14    9   30 1
  15   10   11 ar
  16   10   15 ar
  17   11   12 ar
  18   11   18 1
  19   12   13 ar
  20   12   31 1
  21   13   14 ar
  22   13   32 1
  23   14   15 ar
  24   14   17 1
  25   15   16 1
  26   18   19 am
  27   18   20 2
  28   19   21 1
  29   19   33 1
  30   21   22 1
  31   22   23 1
  32   22   34 1
  33   22   35 1
  34   23   24 1
  35   23   26 1
  36   23   36 1
  37   24   25 1
  38   24   37 1
  39   24   38 1
  40   25   39 1
  41   26   40 1

#	End of record

