#	Name: ASD01870332
#	Creating user name:	WinNT
#	Creation time:	15. 06. 2019 19:39

#	Modifying user name:	WinNT
#	Modification time:	15. 06. 2019 19:39

#	Program:	/corina/corina34_cracker 3.40 0067  02.08.2006

@<TRIPOS>MOLECULE
ASD01870332
  25   26    0    0    0
SMALL
NO_CHARGES


@<TRIPOS>ATOM
   1 C1            -0.0169     1.3977     0.0097 C.ar    
   2 C2             0.0021    -0.0041     0.0020 C.ar    
   3 C3             1.2157    -0.6746    -0.0132 C.ar    
   4 C4             2.3995     0.0366    -0.0207 C.ar    
   5 C5             2.3850     1.4216    -0.0131 C.ar    
   6 C6             1.1880     2.1045     0.0020 C.ar    
   7 O7            -1.1616    -0.7013     0.0098 O.3     
   8 C8            -1.3017     2.1221     0.0197 C.2     
   9 N9            -1.3154     3.4698     0.0271 N.am    
  10 O10           -2.3485     1.5034     0.0213 O.2     
  11 C11           -2.5253     4.1519     0.0366 C.2     
  12 C12           -4.7420     4.3935     0.0530 C.2     
  13 N13           -3.6941     3.5909     0.0447 N.2     
  14 S14           -2.6901     5.8536     0.0466 S.3     
  15 C15           -4.4446     5.6943     0.0540 C.2     
  16 N16           -5.4189     6.8091     0.0618 N.pl3   
  17 O17           -6.6139     6.5734     0.0681 O.2     
  18 O18           -5.0255     7.9618     0.0620 O.2     
  19 H19            1.2352    -1.7544    -0.0188 H       
  20 H20            3.3422    -0.4903    -0.0321 H       
  21 H21            3.3161     1.9689    -0.0187 H       
  22 H22            1.1815     3.1844     0.0075 H       
  23 H23           -1.5077    -0.8988    -0.8712 H       
  24 H24           -0.4804     3.9633     0.0259 H       
  25 H25           -5.7579     4.0270     0.0596 H       
@<TRIPOS>BOND
   1    1    2 ar
   2    1    6 ar
   3    1    8 1
   4    2    3 ar
   5    2    7 1
   6    3    4 ar
   7    3   19 1
   8    4    5 ar
   9    4   20 1
  10    5    6 ar
  11    5   21 1
  12    6   22 1
  13    7   23 1
  14    8    9 am
  15    8   10 2
  16    9   11 1
  17    9   24 1
  18   11   14 1
  19   11   13 2
  20   12   13 1
  21   12   15 2
  22   12   25 1
  23   14   15 1
  24   15   16 1
  25   16   17 2
  26   16   18 2

#	End of record

