#	Name: ASD03091592
#	Creating user name:	WinNT
#	Creation time:	15. 06. 2019 20:31

#	Modifying user name:	WinNT
#	Modification time:	15. 06. 2019 20:31

#	Program:	/corina/corina34_cracker 3.40 0067  02.08.2006

@<TRIPOS>MOLECULE
ASD03091592
  40   43    0    0    0
SMALL
NO_CHARGES


@<TRIPOS>ATOM
   1 C1            -0.0170     1.4011     0.0097 C.ar    
   2 C2             0.0021    -0.0041     0.0020 C.ar    
   3 C3             1.2311    -0.6672    -0.0128 C.ar    
   4 C4             2.4056     0.0648    -0.0197 C.ar    
   5 C5             2.3748     1.4522    -0.0120 C.ar    
   6 C6             1.1830     2.1195     0.0021 C.ar    
   7 O7            -1.2766    -0.4299     0.0119 O.3     
   8 C8            -2.1303     0.6148     0.0257 C.2     
   9 C9            -1.4298     1.7784     0.0311 C.2     
  10 C10           -3.5964     0.5096     0.0391 C.2     
  11 O11           -4.2784     1.5169     0.0506 O.2     
  12 N12           -4.1850    -0.7028     0.0386 N.am    
  13 N13           -6.8761    -1.9611     1.8276 N.3     
  14 C14           -6.1533    -0.7262     1.4947 C.3     
  15 C15           -5.6462    -0.8077     0.0520 C.3     
  16 C16           -6.0702    -2.1549    -0.5464 C.3     
  17 C17           -7.6000    -2.2540    -0.4930 C.3     
  18 C18           -8.0530    -2.1330     0.9647 C.3     
  19 C19           -5.9893    -3.1300     1.7466 C.3     
  20 C20           -5.4769    -3.2796     0.3114 C.3     
  21 N21            1.2748    -2.0650    -0.0203 N.pl3   
  22 H22            3.3556    -0.4489    -0.0308 H       
  23 H23            3.3004     2.0088    -0.0171 H       
  24 H24            1.1673     3.1993     0.0078 H       
  25 H25           -1.8343     2.7798     0.0420 H       
  26 H26           -3.6411    -1.5060     0.0295 H       
  27 H27           -6.8244     0.1267     1.5965 H       
  28 H28           -5.3073    -0.6063     2.1713 H       
  29 H29           -6.0779     0.0041    -0.5334 H       
  30 H30           -5.7253    -2.2323    -1.5774 H       
  31 H31           -8.0389    -1.4471    -1.0800 H       
  32 H32           -7.9180    -3.2157    -0.8956 H       
  33 H33           -8.5882    -3.0369     1.2554 H       
  34 H34           -8.7108    -1.2704     1.0707 H       
  35 H35           -5.1447    -2.9932     2.4219 H       
  36 H36           -6.5415    -4.0257     2.0309 H       
  37 H37           -5.7863    -4.2455    -0.0880 H       
  38 H38           -4.3891    -3.2103     0.3029 H       
  39 H39            0.4503    -2.5760    -0.0151 H       
  40 H40            2.1295    -2.5235    -0.0306 H       
@<TRIPOS>BOND
   1    1    2 ar
   2    1    6 ar
   3    1    9 1
   4    2    3 ar
   5    2    7 1
   6    3    4 ar
   7    3   21 1
   8    4    5 ar
   9    4   22 1
  10    5    6 ar
  11    5   23 1
  12    6   24 1
  13    7    8 1
  14    8    9 2
  15    8   10 1
  16    9   25 1
  17   10   11 2
  18   10   12 am
  19   12   15 1
  20   12   26 1
  21   13   14 1
  22   13   18 1
  23   13   19 1
  24   14   15 1
  25   14   27 1
  26   14   28 1
  27   15   16 1
  28   15   29 1
  29   16   17 1
  30   16   20 1
  31   16   30 1
  32   17   18 1
  33   17   31 1
  34   17   32 1
  35   18   33 1
  36   18   34 1
  37   19   20 1
  38   19   35 1
  39   19   36 1
  40   20   37 1
  41   20   38 1
  42   21   39 1
  43   21   40 1

#	End of record

