#	Name: ASD02490005
#	Creating user name:	WinNT
#	Creation time:	15. 06. 2019 20:22

#	Modifying user name:	WinNT
#	Modification time:	15. 06. 2019 20:22

#	Program:	/corina/corina34_cracker 3.40 0067  02.08.2006

@<TRIPOS>MOLECULE
ASD02490005
  44   45    0    0    0
SMALL
NO_CHARGES


@<TRIPOS>ATOM
   1 C1            -0.0184     1.5028     0.0103 C.2     
   2 C2             0.0021    -0.0041     0.0020 C.3     
   3 O3             1.0197     2.1211     0.0037 O.2     
   4 O4            -1.1898     2.1580     0.0194 O.3     
   5 C5             1.4295    -0.4870    -0.0142 C.ar    
   6 C6             2.0947    -0.7146     1.1766 C.ar    
   7 C7             3.4039    -1.1576     1.1642 C.ar    
   8 C8             4.0504    -1.3742    -0.0454 C.ar    
   9 C9             3.3802    -1.1454    -1.2376 C.ar    
  10 C10            2.0697    -0.7071    -1.2194 C.ar    
  11 O11            5.3380    -1.8094    -0.0608 O.3     
  12 C12            5.9395    -2.0107    -1.3414 C.3     
  13 C13            7.3568    -2.4900    -1.1609 C.ar    
  14 C14            7.6235    -3.8439    -1.0799 C.ar    
  15 C15            8.9236    -4.2836    -0.9143 C.ar    
  16 C16            9.9569    -3.3693    -0.8302 C.ar    
  17 C17            9.6903    -2.0154    -0.9121 C.ar    
  18 C18            8.3907    -1.5759    -1.0821 C.ar    
  19 C19           11.3741    -3.8485    -0.6487 C.3     
  20 C20           12.2276    -3.3748    -1.8269 C.3     
  21 C21           11.9419    -3.2801     0.6534 C.3     
  22 Cl22           4.2392    -1.4422     2.6592 Cl      
  23 C23           -1.1335     3.6089     0.0270 C.3     
  24 H24           -0.4983    -0.3791     0.8948 H       
  25 H25           -0.5153    -0.3696    -0.8850 H       
  26 H26            1.5910    -0.5458     2.1169 H       
  27 H27            3.8810    -1.3128    -2.1797 H       
  28 H28            1.5463    -0.5328    -2.1479 H       
  29 H29            5.3713    -2.7572    -1.8963 H       
  30 H30            5.9412    -1.0710    -1.8937 H       
  31 H31            6.8161    -4.5582    -1.1456 H       
  32 H32            9.1319    -5.3414    -0.8503 H       
  33 H33           10.4976    -1.3010    -0.8461 H       
  34 H34            8.1829    -0.5182    -1.1498 H       
  35 H35           11.3867    -4.9376    -0.6056 H       
  36 H36           13.2526    -3.7215    -1.6956 H       
  37 H37           11.8231    -3.7798    -2.7545 H       
  38 H38           12.2150    -2.2857    -1.8699 H       
  39 H39           11.3339    -3.6176     1.4928 H       
  40 H40           12.9669    -3.6268     0.7847 H       
  41 H41           11.9294    -2.1910     0.6104 H       
  42 H42           -0.6017     3.9472     0.9164 H       
  43 H43           -0.6102     3.9569    -0.8636 H       
  44 H44           -2.1463     4.0118     0.0340 H       
@<TRIPOS>BOND
   1    1    2 1
   2    1    3 2
   3    1    4 1
   4    2    5 1
   5    2   24 1
   6    2   25 1
   7    4   23 1
   8    5    6 ar
   9    5   10 ar
  10    6    7 ar
  11    6   26 1
  12    7    8 ar
  13    7   22 1
  14    8    9 ar
  15    8   11 1
  16    9   10 ar
  17    9   27 1
  18   10   28 1
  19   11   12 1
  20   12   13 1
  21   12   29 1
  22   12   30 1
  23   13   14 ar
  24   13   18 ar
  25   14   15 ar
  26   14   31 1
  27   15   16 ar
  28   15   32 1
  29   16   17 ar
  30   16   19 1
  31   17   18 ar
  32   17   33 1
  33   18   34 1
  34   19   20 1
  35   19   21 1
  36   19   35 1
  37   20   36 1
  38   20   37 1
  39   20   38 1
  40   21   39 1
  41   21   40 1
  42   21   41 1
  43   23   42 1
  44   23   43 1
  45   23   44 1

#	End of record

