#	Name: ASD01915416
#	Creating user name:	WinNT
#	Creation time:	15. 06. 2019 20:05

#	Modifying user name:	WinNT
#	Modification time:	15. 06. 2019 20:05

#	Program:	/corina/corina34_cracker 3.40 0067  02.08.2006

@<TRIPOS>MOLECULE
ASD01915416
  60   65    0    0    0
SMALL
NO_CHARGES


@<TRIPOS>ATOM
   1 C1             0.0428     1.2720    -0.5721 C.ar    
   2 C2             0.1068    -0.1233    -0.6537 C.ar    
   3 C3            -1.0428    -0.8634    -0.8111 C.ar    
   4 C4            -2.2813    -0.2265    -0.8903 C.ar    
   5 C5            -2.3542     1.1791    -0.8089 C.ar    
   6 C6            -1.1886     1.9215    -0.6440 C.ar    
   7 C7             1.2816     2.0578    -0.4032 C.2     
   8 N8             2.4590     1.4284    -0.2185 N.am    
   9 O9             1.2394     3.2726    -0.4309 O.2     
  10 C10            3.6412     2.1641    -0.1630 C.2     
  11 C11            3.7686     3.4964    -0.4000 C.2     
  12 C12            5.1254     3.8345    -0.2381 C.2     
  13 N13            5.7859     2.7421     0.0845 N.2     
  14 N14            4.8761     1.6789     0.1443 N.pl3   
  15 C15            5.1839     0.3481     0.4565 C.ar    
  16 C16            4.4141    -0.3457     1.3801 C.ar    
  17 C17            4.7197    -1.6579     1.6855 C.ar    
  18 C18            5.7913    -2.2808     1.0728 C.ar    
  19 C19            6.5607    -1.5932     0.1521 C.ar    
  20 C20            6.2571    -0.2822    -0.1623 C.ar    
  21 Cl21           7.2227     0.5804    -1.3186 Cl      
  22 C22            5.7102     5.1883    -0.4027 C.ar    
  23 C23            7.0761     5.3878    -0.2124 C.ar    
  24 C24            7.6148     6.6491    -0.3667 C.ar    
  25 C25            6.8014     7.7142    -0.7091 C.ar    
  26 C26            5.4448     7.5219    -0.8993 C.ar    
  27 C27            4.8965     6.2636    -0.7536 C.ar    
  28 C28           -3.5140    -1.0232    -1.0598 C.ar    
  29 C29           -3.9281    -1.8934    -0.0641 C.ar    
  30 C30           -5.0866    -2.6458    -0.2170 C.ar    
  31 C31           -5.8452    -2.5509    -1.3447 C.ar    
  32 C32           -5.4626    -1.6810    -2.3808 C.ar    
  33 C33           -4.2890    -0.9016    -2.2398 C.ar    
  34 C34           -6.2285    -1.5654    -3.5538 C.ar    
  35 C35           -5.8295    -0.7131    -4.5375 C.ar    
  36 C36           -4.6711     0.0482    -4.3995 C.ar    
  37 C37           -3.9087    -0.0345    -3.2733 C.ar    
  38 C38           -3.6223     1.8395    -0.8896 C.1     
  39 N39           -4.6282     2.3634    -0.9536 N.1     
  40 H40            1.0630    -0.6219    -0.5933 H       
  41 H41           -0.9859    -1.9401    -0.8737 H       
  42 H42           -1.2371     2.9986    -0.5805 H       
  43 H43            2.4834     0.4633    -0.1242 H       
  44 H44            2.9712     4.1745    -0.6656 H       
  45 H45            3.5773     0.1401     1.8598 H       
  46 H46            4.1210    -2.1978     2.4041 H       
  47 H47            6.0282    -3.3065     1.3141 H       
  48 H48            7.3971    -2.0826    -0.3248 H       
  49 H49            7.7120     4.5570     0.0557 H       
  50 H50            8.6733     6.8049    -0.2194 H       
  51 H51            7.2269     8.6996    -0.8281 H       
  52 H52            4.8143     8.3569    -1.1666 H       
  53 H53            3.8373     6.1146    -0.9023 H       
  54 H54           -3.3446    -1.9881     0.8397 H       
  55 H55           -5.3906    -3.3178     0.5718 H       
  56 H56           -6.7416    -3.1451    -1.4430 H       
  57 H57           -7.1286    -2.1499    -3.6742 H       
  58 H58           -6.4194    -0.6262    -5.4380 H       
  59 H59           -4.3757     0.7169    -5.1944 H       
  60 H60           -3.0132     0.5618    -3.1793 H       
@<TRIPOS>BOND
   1    1    2 ar
   2    1    7 1
   3    1    6 ar
   4    2    3 ar
   5    2   40 1
   6    3    4 ar
   7    3   41 1
   8    4    5 ar
   9    4   28 1
  10    5    6 ar
  11    5   38 1
  12    6   42 1
  13    7    8 am
  14    7    9 2
  15    8   10 1
  16    8   43 1
  17   10   11 2
  18   10   14 1
  19   11   12 1
  20   11   44 1
  21   12   13 2
  22   12   22 1
  23   13   14 1
  24   14   15 1
  25   15   16 ar
  26   15   20 ar
  27   16   17 ar
  28   16   45 1
  29   17   18 ar
  30   17   46 1
  31   18   19 ar
  32   18   47 1
  33   19   20 ar
  34   19   48 1
  35   20   21 1
  36   22   23 ar
  37   22   27 ar
  38   23   24 ar
  39   23   49 1
  40   24   25 ar
  41   24   50 1
  42   25   26 ar
  43   25   51 1
  44   26   27 ar
  45   26   52 1
  46   27   53 1
  47   28   29 ar
  48   28   33 ar
  49   29   30 ar
  50   29   54 1
  51   30   31 ar
  52   30   55 1
  53   31   32 ar
  54   31   56 1
  55   32   33 ar
  56   32   34 ar
  57   33   37 ar
  58   34   35 ar
  59   34   57 1
  60   35   36 ar
  61   35   58 1
  62   36   37 ar
  63   36   59 1
  64   37   60 1
  65   38   39 3

#	End of record

