#	Name: ASD00190055
#	Creating user name:	WinNT
#	Creation time:	15. 06. 2019 18:33

#	Modifying user name:	WinNT
#	Modification time:	15. 06. 2019 18:33

#	Program:	/corina/corina34_cracker 3.40 0067  02.08.2006

@<TRIPOS>MOLECULE
ASD00190055
  48   52    0    0    0
SMALL
NO_CHARGES


@<TRIPOS>ATOM
   1 C1            -0.0154     1.3889     0.0325 C.ar    
   2 C2             0.0026    -0.0011     0.0111 C.ar    
   3 C3             1.1801    -0.6877    -0.0105 C.ar    
   4 C4             2.3964     0.0123    -0.0116 C.ar    
   5 C5             2.3718     1.4268     0.0098 C.ar    
   6 C6             1.1496     2.1010     0.0321 C.ar    
   7 N7             3.5674    -0.6415    -0.0322 N.ar    
   8 C8             4.7273    -0.0214    -0.0335 C.ar    
   9 C9             4.8189     1.3795    -0.0129 C.ar    
  10 C10            3.6477     2.1440     0.0083 C.ar    
  11 N11            5.8586     2.2832    -0.0085 N.pl3   
  12 C12            5.3154     3.5207     0.0153 C.2     
  13 N13            4.0133     3.4342     0.0249 N.2     
  14 N14            5.8931    -0.7727    -0.0555 N.pl3   
  15 C15            5.8290    -2.1652     0.0436 C.ar    
  16 C16            6.7405    -2.9546    -0.6459 C.ar    
  17 C17            6.6747    -4.3317    -0.5461 C.ar    
  18 C18            5.7018    -4.9240     0.2398 C.ar    
  19 C19            4.7921    -4.1401     0.9275 C.ar    
  20 C20            4.8571    -2.7624     0.8363 C.ar    
  21 C21            6.0973     4.8089     0.0287 C.3     
  22 C22            6.4815     5.1573     1.4681 C.3     
  23 C23            7.2753     6.4652     1.4817 C.3     
  24 C24            8.5430     6.3012     0.6410 C.3     
  25 C25            8.1589     5.9527    -0.7984 C.3     
  26 C26            7.3651     4.6448    -0.8120 C.3     
  27 Cl27           7.8132    -5.3190    -1.4079 Cl      
  28 Cl28           3.5729    -4.8874     1.9118 Cl      
  29 H29           -0.9608     1.9110     0.0452 H       
  30 H30           -0.9304    -0.5452     0.0118 H       
  31 H31            1.1769    -1.7676    -0.0263 H       
  32 H32            1.1257     3.1806     0.0485 H       
  33 H33            6.8050     2.0709    -0.0198 H       
  34 H34            6.7529    -0.3316    -0.1396 H       
  35 H35            7.4998    -2.4928    -1.2596 H       
  36 H36            5.6522    -6.0002     0.3164 H       
  37 H37            4.1471    -2.1510     1.3734 H       
  38 H38            5.4860     5.6093    -0.3881 H       
  39 H39            5.5783     5.2742     2.0670 H       
  40 H40            7.0928     4.3569     1.8849 H       
  41 H41            6.6640     7.2656     1.0649 H       
  42 H42            7.5490     6.7135     2.5072 H       
  43 H43            9.1086     7.2329     0.6507 H       
  44 H44            9.1543     5.5007     1.0578 H       
  45 H45            7.5476     6.7531    -1.2152 H       
  46 H46            9.0620     5.8358    -1.3973 H       
  47 H47            7.9764     3.8444    -0.3952 H       
  48 H48            7.0914     4.3966    -1.8375 H       
@<TRIPOS>BOND
   1    1    2 ar
   2    1    6 ar
   3    1   29 1
   4    2    3 ar
   5    2   30 1
   6    3    4 ar
   7    3   31 1
   8    4    5 ar
   9    4    7 ar
  10    5    6 ar
  11    5   10 ar
  12    6   32 1
  13    7    8 ar
  14    8    9 ar
  15    8   14 1
  16    9   10 ar
  17    9   11 1
  18   10   13 1
  19   11   12 1
  20   11   33 1
  21   12   13 2
  22   12   21 1
  23   14   15 1
  24   14   34 1
  25   15   16 ar
  26   15   20 ar
  27   16   17 ar
  28   16   35 1
  29   17   18 ar
  30   17   27 1
  31   18   19 ar
  32   18   36 1
  33   19   20 ar
  34   19   28 1
  35   20   37 1
  36   21   22 1
  37   21   26 1
  38   21   38 1
  39   22   23 1
  40   22   39 1
  41   22   40 1
  42   23   24 1
  43   23   41 1
  44   23   42 1
  45   24   25 1
  46   24   43 1
  47   24   44 1
  48   25   26 1
  49   25   45 1
  50   25   46 1
  51   26   47 1
  52   26   48 1

#	End of record

