#	Name: ASD06170168
#	Creating user name:	WinNT
#	Creation time:	15. 06. 2019 21:05

#	Modifying user name:	WinNT
#	Modification time:	15. 06. 2019 21:05

#	Program:	/corina/corina34_cracker 3.40 0067  02.08.2006

@<TRIPOS>MOLECULE
ASD06170168
  69   73    0    0    0
SMALL
NO_CHARGES


@<TRIPOS>ATOM
   1 N1             0.0481     1.5804    -0.0765 N.pl3   
   2 N2            -0.1573     0.1995    -0.0030 N.am    
   3 C3             1.0432    -0.4088     0.0943 C.2     
   4 C4             2.0553     0.6593     0.0804 C.2     
   5 C5             1.3662     1.8515    -0.0267 C.2     
   6 C6             3.5110     0.4908     0.1642 C.2     
   7 O7             4.2387     1.4659     0.1420 O.2     
   8 N8             4.0418    -0.7439     0.2659 N.am    
   9 C9            -1.0130     2.5833    -0.1964 C.3     
  10 C10           -1.4110     3.0737     1.1972 C.3     
  11 C11           -2.5192     4.1212     1.0720 C.3     
  12 C12           -1.3990    -0.4438    -0.0264 C.ar    
  13 C13           -2.3256    -0.1323    -1.0130 C.ar    
  14 C14           -3.5507    -0.7697    -1.0335 C.ar    
  15 C15           -3.8552    -1.7170    -0.0732 C.ar    
  16 C16           -2.9350    -2.0290     0.9107 C.ar    
  17 C17           -1.7059    -1.3995     0.9335 C.ar    
  18 O18            1.2484    -1.6053     0.1779 O.2     
  19 C19            1.9852     3.2245    -0.0799 C.3     
  20 C20            5.4302    -0.9117     0.2508 C.ar    
  21 C21            6.2521     0.0347     0.8490 C.ar    
  22 C22            7.6227    -0.1342     0.8329 C.ar    
  23 C23            8.1770    -1.2440     0.2219 C.ar    
  24 C24            7.3615    -2.1879    -0.3750 C.ar    
  25 C25            5.9898    -2.0279    -0.3573 C.ar    
  26 C26            9.6730    -1.4250     0.2062 C.3     
  27 N27           10.8060    -4.2007     3.2501 N.ar    
  28 C28           10.6109    -4.6069     2.0188 C.ar    
  29 C29           10.2418    -3.7248     1.0063 C.ar    
  30 C30           10.0726    -2.3981     1.2853 C.ar    
  31 C31           10.2822    -1.9650     2.6077 C.ar    
  32 C32           10.1257    -0.6160     2.9661 C.ar    
  33 C33           10.3352    -0.2293     4.2531 C.ar    
  34 C34           10.7062    -1.1594     5.2293 C.ar    
  35 C35           10.8682    -2.4883     4.9108 C.ar    
  36 C36           10.6576    -2.9158     3.5899 C.ar    
  37 O37           10.9095    -0.7461     6.5072 O.3     
  38 C38           10.7264     0.6454     6.7758 C.3     
  39 O39           10.0780    -1.9326    -1.0667 O.3     
  40 H40            3.4608    -1.5162     0.3494 H       
  41 H41           -0.6526     3.4246    -0.7884 H       
  42 H42           -1.8794     2.1389    -0.6864 H       
  43 H43           -1.7714     2.2324     1.7892 H       
  44 H44           -0.5447     3.5181     1.6871 H       
  45 H45           -2.8028     4.4705     2.0648 H       
  46 H46           -2.1588     4.9624     0.4800 H       
  47 H47           -3.3856     3.6768     0.5820 H       
  48 H48           -2.0886     0.6077    -1.7630 H       
  49 H49           -4.2718    -0.5277    -1.8002 H       
  50 H50           -4.8139    -2.2139    -0.0915 H       
  51 H51           -3.1760    -2.7691     1.6595 H       
  52 H52           -0.9859    -1.6469     1.6995 H       
  53 H53            2.0827     3.6185     0.9317 H       
  54 H54            2.9705     3.1611    -0.5418 H       
  55 H55            1.3501     3.8868    -0.6682 H       
  56 H56            5.8199     0.9019     1.3260 H       
  57 H57            8.2624     0.6016     1.2975 H       
  58 H58            7.7975    -3.0534    -0.8516 H       
  59 H59            5.3532    -2.7677    -0.8198 H       
  60 H60           10.1571    -0.4650     0.3853 H       
  61 H61           10.7409    -5.6529     1.7833 H       
  62 H62           10.0886    -4.0894     0.0013 H       
  63 H63            9.8402     0.1124     2.2216 H       
  64 H64           10.2138     0.8090     4.5244 H       
  65 H65           11.1549    -3.1984     5.6723 H       
  66 H66           10.9195     0.8403     7.8307 H       
  67 H67           11.4178     1.2272     6.1663 H       
  68 H68            9.7021     0.9302     6.5354 H       
  69 H69            9.6849    -2.7867    -1.2928 H       
@<TRIPOS>BOND
   1    1    2 1
   2    1    5 1
   3    1    9 1
   4    2    3 am
   5    2   12 1
   6    3    4 1
   7    3   18 2
   8    4    5 2
   9    4    6 1
  10    5   19 1
  11    6    7 2
  12    6    8 am
  13    8   20 1
  14    8   40 1
  15    9   10 1
  16    9   41 1
  17    9   42 1
  18   10   11 1
  19   10   43 1
  20   10   44 1
  21   11   45 1
  22   11   46 1
  23   11   47 1
  24   12   13 ar
  25   12   17 ar
  26   13   14 ar
  27   13   48 1
  28   14   15 ar
  29   14   49 1
  30   15   16 ar
  31   15   50 1
  32   16   17 ar
  33   16   51 1
  34   17   52 1
  35   19   53 1
  36   19   54 1
  37   19   55 1
  38   20   21 ar
  39   20   25 ar
  40   21   22 ar
  41   21   56 1
  42   22   23 ar
  43   22   57 1
  44   23   24 ar
  45   23   26 1
  46   24   25 ar
  47   24   58 1
  48   25   59 1
  49   26   30 1
  50   26   39 1
  51   26   60 1
  52   27   28 ar
  53   27   36 ar
  54   28   29 ar
  55   28   61 1
  56   29   30 ar
  57   29   62 1
  58   30   31 ar
  59   31   32 ar
  60   31   36 ar
  61   32   33 ar
  62   32   63 1
  63   33   34 ar
  64   33   64 1
  65   34   35 ar
  66   34   37 1
  67   35   36 ar
  68   35   65 1
  69   37   38 1
  70   38   66 1
  71   38   67 1
  72   38   68 1
  73   39   69 1

#	End of record

