#	Name: ASD02030003
#	Creating user name:	WinNT
#	Creation time:	15. 06. 2019 20:14

#	Modifying user name:	WinNT
#	Modification time:	15. 06. 2019 20:14

#	Program:	/corina/corina34_cracker 3.40 0067  02.08.2006

@<TRIPOS>MOLECULE
ASD02030003
  49   50    0    0    0
SMALL
NO_CHARGES


@<TRIPOS>ATOM
   1 C1             0.8310     0.6521     0.4775 C.ar    
   2 C2             0.6961    -0.7218     0.3917 C.ar    
   3 C3            -0.5641    -1.2917     0.3564 C.ar    
   4 C4            -1.6884    -0.4872     0.4068 C.ar    
   5 C5            -1.5529     0.8859     0.4925 C.ar    
   6 C6            -0.2944     1.4554     0.5331 C.ar    
   7 Cl7            2.4119     1.3680     0.5224 Cl      
   8 C8            -3.0612    -1.1077     0.3679 C.3     
   9 C9            -3.4739    -1.5220     1.7817 C.3     
  10 N10           -4.8120    -2.1269     1.7437 N.3     
  11 C11           -5.2423    -2.5379     3.0868 C.3     
  12 C12           -6.6370    -3.1620     3.0069 C.3     
  13 C13           -7.0851    -3.5900     4.4058 C.3     
  14 O14           -8.3350    -4.2768     4.3162 O.3     
  15 C15           -8.8768    -4.7273     5.4794 C.ar    
  16 C16          -10.0884    -5.4022     5.4641 C.ar    
  17 C17          -10.6391    -5.8603     6.6449 C.ar    
  18 C18           -9.9794    -5.6451     7.8477 C.ar    
  19 C19           -8.7664    -4.9693     7.8621 C.ar    
  20 C20           -8.2146    -4.5165     6.6798 C.ar    
  21 N21          -10.5368    -6.1086     9.0447 N.am    
  22 S22          -11.2499    -5.0433    10.0931 S.o2    
  23 C23          -12.6521    -4.3640     9.1642 C.3     
  24 O24          -11.7084    -5.8584    11.1629 O.2     
  25 O25          -10.2612    -4.0448    10.3045 O.2     
  26 O26           -7.5586    -2.2031     2.4841 O.3     
  27 Cl27          -0.7345    -3.0159     0.2482 Cl      
  28 H28            1.5741    -1.3494     0.3520 H       
  29 H29           -2.4309     1.5136     0.5315 H       
  30 H30           -0.1891     2.5282     0.6005 H       
  31 H31           -3.7764    -0.3834    -0.0219 H       
  32 H32           -3.0448    -1.9858    -0.2778 H       
  33 H33           -2.7587    -2.2463     2.1714 H       
  34 H34           -3.4903    -0.6440     2.4274 H       
  35 H35           -5.4815    -1.4979     1.3262 H       
  36 H36           -4.5393    -3.2693     3.4856 H       
  37 H37           -5.2710    -1.6669     3.7415 H       
  38 H38           -6.6083    -4.0329     2.3522 H       
  39 H39           -6.3367    -4.2528     4.8401 H       
  40 H40           -7.1994    -2.7083     5.0363 H       
  41 H41          -10.6016    -5.5691     4.5286 H       
  42 H42          -11.5827    -6.3855     6.6329 H       
  43 H43           -8.2526    -4.8015     8.7971 H       
  44 H44           -7.2710    -3.9912     6.6907 H       
  45 H45          -10.5056    -7.0538     9.2603 H       
  46 H46          -13.2803    -5.1798     8.8064 H       
  47 H47          -13.2371    -3.7130     9.8138 H       
  48 H48          -12.2815    -3.7911     8.3141 H       
  49 H49           -7.6354    -1.4001     3.0172 H       
@<TRIPOS>BOND
   1    1    2 ar
   2    1    7 1
   3    1    6 ar
   4    2    3 ar
   5    2   28 1
   6    3    4 ar
   7    3   27 1
   8    4    5 ar
   9    4    8 1
  10    5    6 ar
  11    5   29 1
  12    6   30 1
  13    8    9 1
  14    8   31 1
  15    8   32 1
  16    9   10 1
  17    9   33 1
  18    9   34 1
  19   10   11 1
  20   10   35 1
  21   11   12 1
  22   11   36 1
  23   11   37 1
  24   12   13 1
  25   12   26 1
  26   12   38 1
  27   13   14 1
  28   13   39 1
  29   13   40 1
  30   14   15 1
  31   15   16 ar
  32   15   20 ar
  33   16   17 ar
  34   16   41 1
  35   17   18 ar
  36   17   42 1
  37   18   19 ar
  38   18   21 1
  39   19   20 ar
  40   19   43 1
  41   20   44 1
  42   21   22 am
  43   21   45 1
  44   22   23 1
  45   22   24 2
  46   22   25 2
  47   23   46 1
  48   23   47 1
  49   23   48 1
  50   26   49 1

#	End of record

