#	Name: ASD01915412
#	Creating user name:	WinNT
#	Creation time:	15. 06. 2019 20:05

#	Modifying user name:	WinNT
#	Modification time:	15. 06. 2019 20:05

#	Program:	/corina/corina34_cracker 3.40 0067  02.08.2006

@<TRIPOS>MOLECULE
ASD01915412
  40   43    0    0    0
SMALL
NO_CHARGES


@<TRIPOS>ATOM
   1 C1            -0.0169     1.3921     0.0097 C.ar    
   2 C2             0.0021    -0.0041     0.0020 C.ar    
   3 N3            -1.1415    -0.6923     0.0096 N.ar    
   4 C4            -2.3142    -0.1034     0.0244 C.ar    
   5 C5            -2.4179     1.2852     0.0324 C.ar    
   6 C6            -1.2649     2.0493     0.0305 C.ar    
   7 C7             1.3286     1.9585    -0.0001 C.2     
   8 C8             2.3059     1.0551    -0.0143 C.2     
   9 S9             1.6664    -0.5764    -0.0169 S.3     
  10 C10            1.5850     3.4184     0.0048 C.ar    
  11 C11            1.2147     4.1898     1.1056 C.ar    
  12 S12            4.0232     1.4492    -0.0291 S.o2    
  13 O13            4.6884     0.3237    -0.5858 O.2     
  14 O14            4.1295     2.7598    -0.5679 O.2     
  15 C15            4.5480     1.5573     1.6495 C.ar    
  16 C16            5.0203     0.4344     2.2964 C.ar    
  17 C17            4.4908     2.7698     2.3139 C.ar    
  18 C18            4.9017     2.8639     3.6316 C.ar    
  19 C19            5.3717     1.7476     4.2923 C.ar    
  20 C20            5.4362     0.5221     3.6266 C.ar    
  21 C21            1.4558     5.5483     1.1057 C.ar    
  22 C22            2.0650     6.1460     0.0144 C.ar    
  23 C23            2.4348     5.3837    -1.0818 C.ar    
  24 C24            2.2025     4.0237    -1.0890 C.ar    
  25 N25           -3.6752     1.9011     0.0477 N.pl3   
  26 F26            2.2987     7.4767     0.0188 F       
  27 C27            5.9226    -0.6408     4.3062 C.1     
  28 N28            6.3085    -1.5633     4.8453 N.1     
  29 H29           -3.2116    -0.7043     0.0300 H       
  30 H30           -1.3192     3.1279     0.0370 H       
  31 H31            0.7394     3.7248     1.9567 H       
  32 H32            5.0679    -0.5105     1.7755 H       
  33 H33            4.1240     3.6469     1.8014 H       
  34 H34            4.8547     3.8134     4.1441 H       
  35 H35            5.6929     1.8226     5.3207 H       
  36 H36            1.1690     6.1467     1.9578 H       
  37 H37            2.9090     5.8542    -1.9304 H       
  38 H38            2.4912     3.4302    -1.9439 H       
  39 H39           -4.4802     1.3600     0.0528 H       
  40 H40           -3.7412     2.8688     0.0533 H       
@<TRIPOS>BOND
   1    1    2 ar
   2    1    7 1
   3    1    6 ar
   4    2    3 ar
   5    2    9 1
   6    3    4 ar
   7    4    5 ar
   8    4   29 1
   9    5    6 ar
  10    5   25 1
  11    6   30 1
  12    7    8 2
  13    7   10 1
  14    8    9 1
  15    8   12 1
  16   10   11 ar
  17   10   24 ar
  18   11   21 ar
  19   11   31 1
  20   12   13 2
  21   12   14 2
  22   12   15 1
  23   15   16 ar
  24   15   17 ar
  25   16   20 ar
  26   16   32 1
  27   17   18 ar
  28   17   33 1
  29   18   19 ar
  30   18   34 1
  31   19   20 ar
  32   19   35 1
  33   20   27 1
  34   21   22 ar
  35   21   36 1
  36   22   23 ar
  37   22   26 1
  38   23   24 ar
  39   23   37 1
  40   24   38 1
  41   25   39 1
  42   25   40 1
  43   27   28 3

#	End of record

