#	Name: ASD01812684
#	Creating user name:	WinNT
#	Creation time:	15. 06. 2019 19:29

#	Modifying user name:	WinNT
#	Modification time:	15. 06. 2019 19:29

#	Program:	/corina/corina34_cracker 3.40 0067  02.08.2006

@<TRIPOS>MOLECULE
ASD01812684
  53   57    0    0    0
SMALL
NO_CHARGES


@<TRIPOS>ATOM
   1 O1            -0.0163     1.3522     0.0095 O.3     
   2 C2             0.0021    -0.0041     0.0020 C.ar    
   3 C3             1.2105    -0.6847    -0.0132 C.ar    
   4 C4             1.2312    -2.0655    -0.0208 C.ar    
   5 C5             0.0448    -2.7828    -0.0128 C.ar    
   6 C6            -1.1604    -2.1223     0.0022 C.ar    
   7 C7            -1.2004    -0.7252     0.0155 C.ar    
   8 C8            -2.5947    -2.5891     0.0135 C.3     
   9 N9            -3.4200    -1.3759     0.0279 N.am    
  10 C10           -2.6104    -0.3028     0.0372 C.2     
  11 C11           -4.8845    -1.3401     0.0414 C.3     
  12 O12           -2.9891     0.8526     0.0482 O.2     
  13 C13           -5.3737    -1.3360     1.4668 C.ar    
  14 C14           -5.5681    -0.1349     2.1250 C.ar    
  15 C15           -6.0160    -0.1249     3.4303 C.ar    
  16 C16           -6.2726    -1.3283     4.0854 C.ar    
  17 C17           -6.0749    -2.5356     3.4171 C.ar    
  18 C18           -5.6322    -2.5331     2.1100 C.ar    
  19 C19            1.1735     2.0057     0.0016 C.ar    
  20 C20            1.7790     2.3512    -1.2142 C.ar    
  21 C21            3.0033     3.0241    -1.2095 C.ar    
  22 C22            3.6081     3.3441    -0.0129 C.ar    
  23 C23            3.0081     3.0014     1.1873 C.ar    
  24 C24            1.7934     2.3401     1.1980 C.ar    
  25 F25            1.2122     2.0149     2.3734 F       
  26 C26            1.1465     2.0159    -2.4544 C.1     
  27 N27            0.6447     1.7498    -3.4382 N.1     
  28 C28           -6.7535    -1.3242     5.4880 C.ar    
  29 C29           -7.0093    -2.5304     6.1406 C.ar    
  30 C30           -7.4563    -2.5281     7.4425 C.ar    
  31 C31           -7.6533    -1.3166     8.1108 C.ar    
  32 C32           -7.3962    -0.1089     7.4561 C.ar    
  33 C33           -6.9443    -0.1143     6.1558 C.ar    
  34 C34           -8.1187    -1.3126     9.4651 C.1     
  35 N35           -8.4879    -1.3095    10.5395 N.1     
  36 H36            2.1387    -0.1327    -0.0195 H       
  37 H37            2.1758    -2.5889    -0.0333 H       
  38 H38            0.0677    -3.8626    -0.0188 H       
  39 H39           -2.8051    -3.1749    -0.8813 H       
  40 H40           -2.7880    -3.1845     0.9058 H       
  41 H41           -5.2306    -0.4386    -0.4642 H       
  42 H42           -5.2741    -2.2180    -0.4739 H       
  43 H43           -5.3686     0.7968     1.6165 H       
  44 H44           -6.1670     0.8134     3.9433 H       
  45 H45           -6.2721    -3.4709     3.9197 H       
  46 H46           -5.4828    -3.4677     1.5897 H       
  47 H47            3.4757     3.2931    -2.1427 H       
  48 H48            4.5545     3.8644    -0.0112 H       
  49 H49            3.4895     3.2554     2.1201 H       
  50 H50           -6.8570    -3.4665     5.6239 H       
  51 H51           -7.6549    -3.4620     7.9472 H       
  52 H52           -7.5484     0.8280     7.9712 H       
  53 H53           -6.7417     0.8186     5.6509 H       
@<TRIPOS>BOND
   1    1    2 1
   2    1   19 1
   3    2    3 ar
   4    2    7 ar
   5    3    4 ar
   6    3   36 1
   7    4    5 ar
   8    4   37 1
   9    5    6 ar
  10    5   38 1
  11    6    8 1
  12    6    7 ar
  13    7   10 1
  14    8    9 1
  15    8   39 1
  16    8   40 1
  17    9   10 am
  18    9   11 1
  19   10   12 2
  20   11   13 1
  21   11   41 1
  22   11   42 1
  23   13   14 ar
  24   13   18 ar
  25   14   15 ar
  26   14   43 1
  27   15   16 ar
  28   15   44 1
  29   16   17 ar
  30   16   28 1
  31   17   18 ar
  32   17   45 1
  33   18   46 1
  34   19   20 ar
  35   19   24 ar
  36   20   21 ar
  37   20   26 1
  38   21   22 ar
  39   21   47 1
  40   22   23 ar
  41   22   48 1
  42   23   24 ar
  43   23   49 1
  44   24   25 1
  45   26   27 3
  46   28   29 ar
  47   28   33 ar
  48   29   30 ar
  49   29   50 1
  50   30   31 ar
  51   30   51 1
  52   31   32 ar
  53   31   34 1
  54   32   33 ar
  55   32   52 1
  56   33   53 1
  57   34   35 3

#	End of record

