#	Name: ASD01870191
#	Creating user name:	WinNT
#	Creation time:	15. 06. 2019 19:38

#	Modifying user name:	WinNT
#	Modification time:	15. 06. 2019 19:38

#	Program:	/corina/corina34_cracker 3.40 0067  02.08.2006

@<TRIPOS>MOLECULE
ASD01870191
  49   53    0    0    0
SMALL
NO_CHARGES


@<TRIPOS>ATOM
   1 Cl1            3.3055    -4.1362    -5.6613 Cl      
   2 C2            -0.0168     1.3890     0.0097 C.ar    
   3 C3             0.0021    -0.0041     0.0020 C.ar    
   4 C4             1.1787    -0.6895    -0.0125 C.ar    
   5 C5             2.3941     0.0134    -0.0203 C.ar    
   6 C6             2.3756     1.4326    -0.0130 C.ar    
   7 C7             1.1407     2.1050     0.0025 C.ar    
   8 C8             3.6272    -0.6637    -0.0358 C.ar    
   9 C9             4.7900     0.0351    -0.0436 C.ar    
  10 C10            4.7882     1.4439    -0.0361 C.ar    
  11 C11            3.5864     2.1337    -0.0214 C.ar    
  12 C12            5.8880     2.4286    -0.0415 C.2     
  13 N13            5.3952     3.6790    -0.0301 N.am    
  14 C14            3.9298     3.6021    -0.0168 C.3     
  15 C15            6.1876     4.9112    -0.0312 C.3     
  16 C16            7.0835     4.9444     1.2097 C.3     
  17 O17            7.8971     6.1187     1.1769 O.3     
  18 C18            8.7727     6.1906     0.0498 C.3     
  19 C19            7.9446     6.2075    -1.2377 C.3     
  20 C20            7.0648     4.9545    -1.2861 C.3     
  21 C21            3.6565    -2.1704    -0.0431 C.3     
  22 C22            3.5284    -2.6685    -1.4596 C.ar    
  23 C23            4.6546    -2.8759    -2.2323 C.ar    
  24 N24            4.5511    -3.3113    -3.4732 N.ar    
  25 C25            3.3791    -3.5650    -4.0236 C.ar    
  26 C26            2.2078    -3.3805    -3.3099 C.ar    
  27 C27            2.2785    -2.9297    -2.0015 C.ar    
  28 O28            7.0708     2.1485    -0.0540 O.2     
  29 H29           -0.9637     1.9083     0.0170 H       
  30 H30           -0.9306    -0.5486     0.0080 H       
  31 H31            1.1770    -1.7695    -0.0175 H       
  32 H32            1.1108     3.1846     0.0079 H       
  33 H33            5.7302    -0.4960    -0.0555 H       
  34 H34            3.5210     4.0855    -0.9040 H       
  35 H35            3.5378     4.0759     0.8832 H       
  36 H36            5.5205     5.7732    -0.0220 H       
  37 H37            6.4631     4.9569     2.1058 H       
  38 H38            7.7213     4.0605     1.2213 H       
  39 H39            9.3692     7.1009     0.1104 H       
  40 H40            9.4326     5.3231     0.0463 H       
  41 H41            7.3138     7.0963    -1.2534 H       
  42 H42            8.6117     6.2178    -2.0997 H       
  43 H43            7.6963     4.0667    -1.3204 H       
  44 H44            6.4316     4.9876    -2.1727 H       
  45 H45            4.5991    -2.5175     0.3803 H       
  46 H46            2.8279    -2.5529     0.5529 H       
  47 H47            5.6313    -2.6790    -1.8156 H       
  48 H48            1.2511    -3.5894    -3.7654 H       
  49 H49            1.3812    -2.7768    -1.4203 H       
@<TRIPOS>BOND
   1    1   25 1
   2    2    3 ar
   3    2    7 ar
   4    2   29 1
   5    3    4 ar
   6    3   30 1
   7    4    5 ar
   8    4   31 1
   9    5    6 ar
  10    5    8 ar
  11    6    7 ar
  12    6   11 ar
  13    7   32 1
  14    8    9 ar
  15    8   21 1
  16    9   10 ar
  17    9   33 1
  18   10   11 ar
  19   10   12 1
  20   11   14 1
  21   12   13 am
  22   12   28 2
  23   13   14 1
  24   13   15 1
  25   14   34 1
  26   14   35 1
  27   15   16 1
  28   15   20 1
  29   15   36 1
  30   16   17 1
  31   16   37 1
  32   16   38 1
  33   17   18 1
  34   18   19 1
  35   18   39 1
  36   18   40 1
  37   19   20 1
  38   19   41 1
  39   19   42 1
  40   20   43 1
  41   20   44 1
  42   21   22 1
  43   21   45 1
  44   21   46 1
  45   22   23 ar
  46   22   27 ar
  47   23   24 ar
  48   23   47 1
  49   24   25 ar
  50   25   26 ar
  51   26   27 ar
  52   26   48 1
  53   27   49 1

#	End of record

