#	Name: ASD01811142
#	Creating user name:	WinNT
#	Creation time:	15. 06. 2019 19:26

#	Modifying user name:	WinNT
#	Modification time:	15. 06. 2019 19:26

#	Program:	/corina/corina34_cracker 3.40 0067  02.08.2006

@<TRIPOS>MOLECULE
ASD01811142
  58   61    0    0    0
SMALL
NO_CHARGES


@<TRIPOS>ATOM
   1 C1            -0.0167     1.3784     0.0096 C.ar    
   2 C2             0.0021    -0.0041     0.0020 C.ar    
   3 C3            -1.1894    -0.7089     0.0101 C.ar    
   4 C4            -2.3875    -0.0316     0.0256 C.ar    
   5 C5            -2.4196     1.3575     0.0334 C.ar    
   6 C6            -1.2163     2.0598     0.0305 C.ar    
   7 C7            -3.8275    -0.4902     0.0379 C.3     
   8 C8            -4.6237     0.7974     0.0530 C.2     
   9 N9            -3.7396     1.8093     0.0493 N.am    
  10 O10           -5.8324     0.8968     0.0660 O.2     
  11 C11           -4.1183     3.2244     0.0616 C.3     
  12 C12           -4.9604     3.5395    -1.1778 C.3     
  13 C13           -5.4038     5.0035    -1.1285 C.3     
  14 N14           -6.1879     5.2380     0.0907 N.3     
  15 C15           -5.3852     4.9875     1.2946 C.3     
  16 C16           -4.9413     3.5231     1.3177 C.3     
  17 C17           -8.1374     8.2177     1.4002 C.3     
  18 C18           -7.5552     6.8028     1.3865 C.3     
  19 C19           -6.7468     6.5965     0.1039 C.3     
  20 C20           -5.6083     7.6170     0.0490 C.3     
  21 C21           -6.1904     9.0319     0.0628 C.3     
  22 C22           -6.9988     9.2382     1.3453 C.3     
  23 O23           -7.5426    10.5597     1.3582 O.3     
  24 C24           -7.6592     6.7844    -1.1098 C.3     
  25 C25            1.2806     2.1453     0.0014 C.3     
  26 C26           -7.7094    11.1068     2.6677 C.3     
  27 H27            0.9438    -0.5327    -0.0105 H       
  28 H28           -1.1789    -1.7888     0.0038 H       
  29 H29           -1.2226     3.1398     0.0368 H       
  30 H30           -4.0521    -1.0676    -0.8589 H       
  31 H31           -4.0337    -1.0772     0.9329 H       
  32 H32           -3.2200     3.8419     0.0582 H       
  33 H33           -4.3653     3.3695    -2.0750 H       
  34 H34           -5.8384     2.8938    -1.1949 H       
  35 H35           -4.5255     5.6490    -1.1253 H       
  36 H36           -6.0156     5.2272    -2.0025 H       
  37 H37           -4.5071     5.6331     1.2865 H       
  38 H38           -5.9836     5.1996     2.1807 H       
  39 H39           -5.8190     2.8771     1.3398 H       
  40 H40           -4.3326     3.3413     2.2034 H       
  41 H41           -8.7874     8.3516     0.5355 H       
  42 H42           -8.7133     8.3647     2.3139 H       
  43 H43           -6.9053     6.6690     2.2511 H       
  44 H44           -8.3664     6.0758     1.4256 H       
  45 H45           -4.9583     7.4831     0.9137 H       
  46 H46           -5.0324     7.4700    -0.8647 H       
  47 H47           -5.3793     9.7589     0.0236 H       
  48 H48           -6.8404     9.1657    -0.8019 H       
  49 H49           -6.3488     9.1043     2.2100 H       
  50 H50           -8.0740     7.7923    -1.1000 H       
  51 H51           -7.0833     6.6374    -2.0235 H       
  52 H52           -8.4704     6.0573    -1.0706 H       
  53 H53            1.5835     2.3357    -1.0282 H       
  54 H54            1.1453     3.0936     0.5216 H       
  55 H55            2.0511     1.5614     0.5047 H       
  56 H56           -8.3867    10.4747     3.2420 H       
  57 H57           -6.7423    11.1520     3.1685 H       
  58 H58           -8.1264    12.1110     2.5915 H       
@<TRIPOS>BOND
   1    1    2 ar
   2    1   25 1
   3    1    6 ar
   4    2    3 ar
   5    2   27 1
   6    3    4 ar
   7    3   28 1
   8    4    5 ar
   9    4    7 1
  10    5    6 ar
  11    5    9 1
  12    6   29 1
  13    7    8 1
  14    7   30 1
  15    7   31 1
  16    8    9 am
  17    8   10 2
  18    9   11 1
  19   11   12 1
  20   11   16 1
  21   11   32 1
  22   12   13 1
  23   12   33 1
  24   12   34 1
  25   13   14 1
  26   13   35 1
  27   13   36 1
  28   14   15 1
  29   14   19 1
  30   15   16 1
  31   15   37 1
  32   15   38 1
  33   16   39 1
  34   16   40 1
  35   17   18 1
  36   17   22 1
  37   17   41 1
  38   17   42 1
  39   18   19 1
  40   18   43 1
  41   18   44 1
  42   19   20 1
  43   19   24 1
  44   20   21 1
  45   20   45 1
  46   20   46 1
  47   21   22 1
  48   21   47 1
  49   21   48 1
  50   22   23 1
  51   22   49 1
  52   23   26 1
  53   24   50 1
  54   24   51 1
  55   24   52 1
  56   25   53 1
  57   25   54 1
  58   25   55 1
  59   26   56 1
  60   26   57 1
  61   26   58 1

#	End of record

