#	Name: ASD07300150
#	Creating user name:	WinNT
#	Creation time:	15. 06. 2019 21:09

#	Modifying user name:	WinNT
#	Modification time:	15. 06. 2019 21:09

#	Program:	/corina/corina34_cracker 3.40 0067  02.08.2006

@<TRIPOS>MOLECULE
ASD07300150
  49   54    0    0    0
SMALL
NO_CHARGES


@<TRIPOS>ATOM
   1 C1            -0.2114     2.2354    -0.8832 C.3     
   2 C2            -0.3578     0.7793    -1.3251 C.3     
   3 C3             0.9787     0.5175    -0.6073 C.3     
   4 C4             1.2986     2.0088    -0.8171 C.3     
   5 C5            -1.5324     4.1151    -1.1481 C.ar    
   6 C6            -0.6827     3.2723    -1.8617 C.ar    
   7 C7            -0.4419     3.5028    -3.1981 C.ar    
   8 C8            -1.0656     4.5868    -3.8044 C.ar    
   9 C9            -1.8982     5.3870    -3.0471 C.ar    
  10 N10           -2.1066     5.1400    -1.7703 N.ar    
  11 N11           -1.6242     3.6926     0.1766 N.am    
  12 C12           -0.8794     2.5966     0.4168 C.2     
  13 O13           -0.7687     2.0136     1.4745 O.2     
  14 C14           -2.4033     4.3355     1.1490 C.ar    
  15 C15           -3.1422     5.4621     0.8134 C.ar    
  16 C16           -3.9097     6.0946     1.7711 C.ar    
  17 C17           -3.9422     5.6048     3.0689 C.ar    
  18 C18           -3.2040     4.4791     3.4048 C.ar    
  19 C19           -2.4407     3.8425     2.4464 C.ar    
  20 O20           -4.6974     6.2285     4.0119 O.3     
  21 C21           -8.1926     6.2033     4.4534 C.ar    
  22 C22           -7.9949     5.2769     3.4138 C.ar    
  23 C23           -9.1055     4.6380     2.8560 C.ar    
  24 C24          -10.3569     4.9488     3.3561 C.ar    
  25 C25          -10.4723     5.8722     4.3819 C.ar    
  26 N26           -9.4119     6.4634     4.8945 N.ar    
  27 C27           -6.0361     6.0369     3.9821 C.2     
  28 N28           -6.9362     6.6671     4.7920 N.pl3   
  29 N29           -6.6595     5.2165     3.1766 N.2     
  30 C30           -6.6268     7.6544     5.8292 C.3     
  31 H31           -1.2060     0.2674    -0.8706 H       
  32 H32           -0.3082     0.6430    -2.4054 H       
  33 H33            0.8640     0.2393     0.4403 H       
  34 H34            1.6432    -0.1521    -1.1534 H       
  35 H35            1.8137     2.2180    -1.7547 H       
  36 H36            1.7743     2.4794     0.0433 H       
  37 H37            0.2159     2.8571    -3.7610 H       
  38 H38           -0.9016     4.8000    -4.8504 H       
  39 H39           -2.3873     6.2312    -3.5103 H       
  40 H40           -3.1164     5.8438    -0.1966 H       
  41 H41           -4.4845     6.9709     1.5102 H       
  42 H42           -3.2297     4.0982     4.4151 H       
  43 H43           -1.8696     2.9636     2.7069 H       
  44 H44           -8.9899     3.9215     2.0562 H       
  45 H45          -11.2380     4.4751     2.9493 H       
  46 H46          -11.4512     6.1123     4.7698 H       
  47 H47           -6.4576     7.1443     6.7775 H       
  48 H48           -5.7300     8.2070     5.5488 H       
  49 H49           -7.4625     8.3465     5.9329 H       
@<TRIPOS>BOND
   1    1    2 1
   2    1    4 1
   3    1    6 1
   4    1   12 1
   5    2    3 1
   6    2   31 1
   7    2   32 1
   8    3    4 1
   9    3   33 1
  10    3   34 1
  11    4   35 1
  12    4   36 1
  13    5    6 ar
  14    5   10 ar
  15    5   11 1
  16    6    7 ar
  17    7    8 ar
  18    7   37 1
  19    8    9 ar
  20    8   38 1
  21    9   10 ar
  22    9   39 1
  23   11   12 am
  24   11   14 1
  25   12   13 2
  26   14   15 ar
  27   14   19 ar
  28   15   16 ar
  29   15   40 1
  30   16   17 ar
  31   16   41 1
  32   17   18 ar
  33   17   20 1
  34   18   19 ar
  35   18   42 1
  36   19   43 1
  37   20   27 1
  38   21   22 ar
  39   21   26 ar
  40   21   28 1
  41   22   23 ar
  42   22   29 1
  43   23   24 ar
  44   23   44 1
  45   24   25 ar
  46   24   45 1
  47   25   26 ar
  48   25   46 1
  49   27   28 1
  50   27   29 2
  51   28   30 1
  52   30   47 1
  53   30   48 1
  54   30   49 1

#	End of record

