#	Name: ASD03731825
#	Creating user name:	WinNT
#	Creation time:	15. 06. 2019 20:46

#	Modifying user name:	WinNT
#	Modification time:	15. 06. 2019 20:46

#	Program:	/corina/corina34_cracker 3.40 0067  02.08.2006

@<TRIPOS>MOLECULE
ASD03731825
  40   41    0    0    0
SMALL
NO_CHARGES


@<TRIPOS>ATOM
   1 C1            -0.0805     1.4482    -0.5043 C.2     
   2 C2            -0.0440    -0.0203    -0.3771 C.ar    
   3 C3             1.1801    -0.6987    -0.4186 C.ar    
   4 C4             1.2085    -2.0734    -0.2985 C.ar    
   5 C5             0.0253    -2.7825    -0.1374 C.ar    
   6 C6            -1.1933    -2.1114    -0.0962 C.ar    
   7 C7            -1.2312    -0.7393    -0.2089 C.ar    
   8 O8             0.9537     2.0721    -0.6455 O.2     
   9 N9            -1.2604     2.0985    -0.4697 N.am    
  10 S10           -1.3014     3.7478    -0.6126 S.o2    
  11 O11           -2.6803     4.0745    -0.5078 O.2     
  12 O12           -0.3644     4.2065     0.3523 O.2     
  13 C13           -0.6962     4.0718    -2.2917 C.3     
  14 F14            2.3311    -0.0090    -0.5762 F       
  15 O15            0.0574    -4.1341    -0.0202 O.3     
  16 C16            1.2602    -4.7568    -0.1396 C.ar    
  17 C17            2.0851    -4.9004     0.9727 C.ar    
  18 C18            3.3096    -5.5356     0.8457 C.ar    
  19 C19            3.7104    -6.0249    -0.3840 C.ar    
  20 C20            2.8918    -5.8819    -1.4885 C.ar    
  21 C21            1.6654    -5.2549    -1.3675 C.ar    
  22 O22            1.6898    -4.4179     2.1810 O.3     
  23 C23            2.5873    -4.6011     3.2779 C.3     
  24 C24            1.9754    -3.9978     4.5438 C.3     
  25 Cl25          -2.6680    -3.0050     0.1049 Cl      
  26 H26            2.1519    -2.5982    -0.3303 H       
  27 H27           -2.1772    -0.2197    -0.1719 H       
  28 H28           -2.0857     1.6005    -0.3611 H       
  29 H29           -1.3508     3.5844    -3.0142 H       
  30 H30           -0.6896     5.1464    -2.4744 H       
  31 H31            0.3154     3.6794    -2.3953 H       
  32 H32            3.9514    -5.6483     1.7069 H       
  33 H33            4.6655    -6.5195    -0.4817 H       
  34 H34            3.2087    -6.2651    -2.4472 H       
  35 H35            1.0254    -5.1491    -2.2310 H       
  36 H36            2.7617    -5.6662     3.4306 H       
  37 H37            3.5334    -4.1056     3.0599 H       
  38 H38            1.8010    -2.9327     4.3910 H       
  39 H39            1.0293    -4.4933     4.7618 H       
  40 H40            2.6600    -4.1376     5.3804 H       
@<TRIPOS>BOND
   1    1    2 1
   2    1    8 2
   3    1    9 am
   4    2    3 ar
   5    2    7 ar
   6    3    4 ar
   7    3   14 1
   8    4    5 ar
   9    4   26 1
  10    5    6 ar
  11    5   15 1
  12    6    7 ar
  13    6   25 1
  14    7   27 1
  15    9   10 am
  16    9   28 1
  17   10   11 2
  18   10   12 2
  19   10   13 1
  20   13   29 1
  21   13   30 1
  22   13   31 1
  23   15   16 1
  24   16   17 ar
  25   16   21 ar
  26   17   18 ar
  27   17   22 1
  28   18   19 ar
  29   18   32 1
  30   19   20 ar
  31   19   33 1
  32   20   21 ar
  33   20   34 1
  34   21   35 1
  35   22   23 1
  36   23   24 1
  37   23   36 1
  38   23   37 1
  39   24   38 1
  40   24   39 1
  41   24   40 1

#	End of record

