#	Name: ASD01882225
#	Creating user name:	WinNT
#	Creation time:	15. 06. 2019 19:44

#	Modifying user name:	WinNT
#	Modification time:	15. 06. 2019 19:44

#	Program:	/corina/corina34_cracker 3.40 0067  02.08.2006

@<TRIPOS>MOLECULE
ASD01882225
  46   49    0    0    0
SMALL
NO_CHARGES


@<TRIPOS>ATOM
   1 C1            -0.0159     1.3220     0.0093 C.2     
   2 N2             0.0021    -0.0041     0.0020 N.2     
   3 C3             1.1523    -0.6857    -0.0126 C.2     
   4 C4             2.3835     0.0173    -0.0206 C.2     
   5 C5             2.3523     1.3664    -0.0131 C.2     
   6 N6             1.1484     2.0132     0.0019 N.pl3   
   7 O7            -1.0993     2.1290     0.0184 O.3     
   8 C8             0.8540     3.4562     0.0125 C.3     
   9 C9            -0.6831     3.5211     0.0242 C.3     
  10 O10            1.1423    -1.9071    -0.0187 O.2     
  11 C11           -1.1835     4.2242     1.2877 C.3     
  12 O12           -2.6102     4.2985     1.2581 O.3     
  13 C13           -3.2188     4.8985     2.3147 C.ar    
  14 C14           -4.6015     5.0053     2.3514 C.ar    
  15 C15           -5.2177     5.6157     3.4266 C.ar    
  16 C16           -4.4576     6.1200     4.4657 C.ar    
  17 C17           -3.0794     6.0153     4.4313 C.ar    
  18 C18           -2.4587     5.4003     3.3613 C.ar    
  19 C19           -5.1325     6.7854     5.6374 C.3     
  20 C20           -4.7867     6.0294     6.9218 C.3     
  21 C21           -5.4719     6.7049     8.1114 C.3     
  22 C22           -4.9871     8.1516     8.2250 C.3     
  23 C23           -5.3328     8.9077     6.9405 C.3     
  24 C24           -4.6477     8.2321     5.7510 C.3     
  25 H25            3.3237    -0.5140    -0.0321 H       
  26 H26            3.2727     1.9314    -0.0185 H       
  27 H27            1.2651     3.9237     0.9072 H       
  28 H28            1.2480     3.9334    -0.8848 H       
  29 H29           -1.0474     4.0318    -0.8672 H       
  30 H30           -0.8671     3.6616     2.1660 H       
  31 H31           -0.7680     5.2309     1.3319 H       
  32 H32           -5.1957     4.6119     1.5399 H       
  33 H33           -6.2941     5.6994     3.4554 H       
  34 H34           -2.4878     6.4106     5.2438 H       
  35 H35           -1.3824     5.3143     3.3372 H       
  36 H36           -6.2122     6.7746     5.4889 H       
  37 H37           -5.1321     4.9987     6.8409 H       
  38 H38           -3.7069     6.0401     7.0703 H       
  39 H39           -6.5517     6.6941     7.9629 H       
  40 H40           -5.2256     6.1663     9.0264 H       
  41 H41           -5.4752     8.6329     9.0724 H       
  42 H42           -3.9073     8.1624     8.3734 H       
  43 H43           -6.4126     8.8969     6.7920 H       
  44 H44           -4.9874     9.9383     7.0215 H       
  45 H45           -3.5679     8.2429     5.8994 H       
  46 H46           -4.8940     8.7708     4.8359 H       
@<TRIPOS>BOND
   1    1    2 2
   2    1    6 1
   3    1    7 1
   4    2    3 1
   5    3    4 1
   6    3   10 2
   7    4    5 2
   8    4   25 1
   9    5    6 1
  10    5   26 1
  11    6    8 1
  12    7    9 1
  13    8    9 1
  14    8   27 1
  15    8   28 1
  16    9   11 1
  17    9   29 1
  18   11   12 1
  19   11   30 1
  20   11   31 1
  21   12   13 1
  22   13   14 ar
  23   13   18 ar
  24   14   15 ar
  25   14   32 1
  26   15   16 ar
  27   15   33 1
  28   16   17 ar
  29   16   19 1
  30   17   18 ar
  31   17   34 1
  32   18   35 1
  33   19   20 1
  34   19   24 1
  35   19   36 1
  36   20   21 1
  37   20   37 1
  38   20   38 1
  39   21   22 1
  40   21   39 1
  41   21   40 1
  42   22   23 1
  43   22   41 1
  44   22   42 1
  45   23   24 1
  46   23   43 1
  47   23   44 1
  48   24   45 1
  49   24   46 1

#	End of record

