#	Name: ASD03080209
#	Creating user name:	WinNT
#	Creation time:	15. 06. 2019 20:26

#	Modifying user name:	WinNT
#	Modification time:	15. 06. 2019 20:26

#	Program:	/corina/corina34_cracker 3.40 0067  02.08.2006

@<TRIPOS>MOLECULE
ASD03080209
  23   24    0    0    0
SMALL
NO_CHARGES


@<TRIPOS>ATOM
   1 C1            -0.0043     1.3936     0.1634 C.ar    
   2 C2             1.0420     1.7819     0.9810 C.ar    
   3 C3             2.2461     1.1097     0.9326 C.ar    
   4 C4             2.4084     0.0364     0.0575 C.ar    
   5 C5             1.3509    -0.3518    -0.7651 C.ar    
   6 C6             0.1492     0.3293    -0.7078 C.ar    
   7 C7             3.6997    -0.6888     0.0012 C.ar    
   8 C8             4.9102     0.0162    -0.1502 C.ar    
   9 N9             6.0449    -0.6740    -0.1960 N.ar    
  10 C10            6.0077    -1.9974    -0.0987 C.ar    
  11 N11            4.8558    -2.6407     0.0429 N.ar    
  12 N12            3.7343    -2.0118     0.0980 N.ar    
  13 Cl13          -1.1693    -0.1514    -1.7297 Cl      
  14 Cl14           1.5435    -1.6865    -1.8584 Cl      
  15 N15            4.9173     1.3960    -0.2495 N.pl3   
  16 N16            7.1885    -2.7174    -0.1462 N.pl3   
  17 H17           -0.9461     1.9204     0.2085 H       
  18 H18            0.9163     2.6135     1.6585 H       
  19 H19            3.0617     1.4147     1.5715 H       
  20 H20            4.0803     1.8819    -0.3144 H       
  21 H21            5.7593     1.8776    -0.2541 H       
  22 H22            8.0348    -2.2548    -0.2499 H       
  23 H23            7.1700    -3.6847    -0.0758 H       
@<TRIPOS>BOND
   1    1    2 ar
   2    1    6 ar
   3    1   17 1
   4    2    3 ar
   5    2   18 1
   6    3    4 ar
   7    3   19 1
   8    4    5 ar
   9    4    7 1
  10    5    6 ar
  11    5   14 1
  12    6   13 1
  13    7    8 ar
  14    7   12 ar
  15    8    9 ar
  16    8   15 1
  17    9   10 ar
  18   10   11 ar
  19   10   16 1
  20   11   12 ar
  21   15   20 1
  22   15   21 1
  23   16   22 1
  24   16   23 1

#	End of record

