#	Name: ASD09080109
#	Creating user name:	WinNT
#	Creation time:	15. 06. 2019 21:20

#	Modifying user name:	WinNT
#	Modification time:	15. 06. 2019 21:20

#	Program:	/corina/corina34_cracker 3.40 0067  02.08.2006

@<TRIPOS>MOLECULE
ASD09080109
  54   56    0    0    0
SMALL
NO_CHARGES


@<TRIPOS>ATOM
   1 C1            -0.0167     1.3772     0.0096 C.ar    
   2 C2             0.0021    -0.0041     0.0020 C.ar    
   3 C3            -1.1962    -0.7147     0.0101 C.ar    
   4 C4            -2.4082    -0.0277     0.0258 C.ar    
   5 C5            -2.4165     1.3537     0.0333 C.ar    
   6 C6            -1.2232     2.0552     0.0306 C.ar    
   7 Cl7            1.4756     2.2642     0.0001 Cl      
   8 Cl8           -3.9258     2.2111     0.0523 Cl      
   9 C9            -1.1817    -2.1986     0.0015 C.ar    
  10 C10           -2.3800    -2.9096     0.0096 C.ar    
  11 C11            0.0301    -2.8859    -0.0204 C.ar    
  12 C12            0.0377    -4.2660    -0.0283 C.ar    
  13 C13           -1.1547    -4.9669    -0.0144 C.ar    
  14 C14           -2.3607    -4.2896     0.0016 C.ar    
  15 C15           -1.1400    -6.4738    -0.0231 C.3     
  16 C16           -1.1135    -6.9918     1.4163 C.3     
  17 C17           -1.2242    -8.5178     1.4112 C.3     
  18 N18            0.1441    -6.5956     2.0548 N.am    
  19 C19           -1.1981    -9.0281     2.8289 C.ar    
  20 O20           -2.4509    -8.9043     0.7884 O.3     
  21 C21            0.0150    -9.2513     3.4643 C.ar    
  22 C22            0.0357    -9.7206     4.7694 C.ar    
  23 O23            1.1810    -9.0111     2.8088 O.3     
  24 C24            0.2107    -6.4759     3.3956 C.2     
  25 C25            1.5043    -6.0683     4.0524 C.3     
  26 O26           -0.7706    -6.6961     4.0735 O.2     
  27 O27            1.3223    -6.0116     5.4686 O.3     
  28 C28            2.4957    -5.6324     6.1907 C.3     
  29 C29           -2.3818    -9.2685     3.4989 C.ar    
  30 C30           -1.1511    -9.9645     5.4335 C.ar    
  31 C31           -2.3585    -9.7358     4.8002 C.ar    
  32 H32            0.9441    -0.5322    -0.0105 H       
  33 H33           -3.3397    -0.5743     0.0318 H       
  34 H34           -1.2338     3.1351     0.0364 H       
  35 H35           -3.3222    -2.3818     0.0225 H       
  36 H36            0.9617    -2.3396    -0.0316 H       
  37 H37            0.9765    -4.7998    -0.0457 H       
  38 H38           -3.2888    -4.8418     0.0127 H       
  39 H39           -2.0339    -6.8430    -0.5257 H       
  40 H40           -0.2542    -6.8254    -0.5522 H       
  41 H41           -1.9513    -6.5686     1.9702 H       
  42 H42           -0.3863    -8.9411     0.8572 H       
  43 H43            0.9289    -6.4195     1.5126 H       
  44 H44           -3.2407    -8.5623     1.2293 H       
  45 H45            0.9787    -9.8955     5.2660 H       
  46 H46            1.5151    -8.1102     2.9178 H       
  47 H47            2.2783    -6.7980     3.8145 H       
  48 H48            1.8049    -5.0870     3.6851 H       
  49 H49            2.2750    -5.6128     7.2580 H       
  50 H50            3.2902    -6.3531     5.9972 H       
  51 H51            2.8168    -4.6421     5.8678 H       
  52 H52           -3.3263    -9.0910     3.0062 H       
  53 H53           -1.1356   -10.3302     6.4496 H       
  54 H54           -3.2851    -9.9271     5.3210 H       
@<TRIPOS>BOND
   1    1    2 ar
   2    1    7 1
   3    1    6 ar
   4    2    3 ar
   5    2   32 1
   6    3    4 ar
   7    3    9 1
   8    4    5 ar
   9    4   33 1
  10    5    6 ar
  11    5    8 1
  12    6   34 1
  13    9   10 ar
  14    9   11 ar
  15   10   14 ar
  16   10   35 1
  17   11   12 ar
  18   11   36 1
  19   12   13 ar
  20   12   37 1
  21   13   14 ar
  22   13   15 1
  23   14   38 1
  24   15   16 1
  25   15   39 1
  26   15   40 1
  27   16   17 1
  28   16   18 1
  29   16   41 1
  30   17   19 1
  31   17   20 1
  32   17   42 1
  33   18   24 am
  34   18   43 1
  35   19   21 ar
  36   19   29 ar
  37   20   44 1
  38   21   22 ar
  39   21   23 1
  40   22   30 ar
  41   22   45 1
  42   23   46 1
  43   24   25 1
  44   24   26 2
  45   25   27 1
  46   25   47 1
  47   25   48 1
  48   27   28 1
  49   28   49 1
  50   28   50 1
  51   28   51 1
  52   29   31 ar
  53   29   52 1
  54   30   31 ar
  55   30   53 1
  56   31   54 1

#	End of record

