#	Name: ASD01510027
#	Creating user name:	WinNT
#	Creation time:	15. 06. 2019 19:21

#	Modifying user name:	WinNT
#	Modification time:	15. 06. 2019 19:21

#	Program:	/corina/corina34_cracker 3.40 0067  02.08.2006

@<TRIPOS>MOLECULE
ASD01510027
  60   62    0    0    0
SMALL
NO_CHARGES


@<TRIPOS>ATOM
   1 C1            -0.0187     1.5258     0.0104 C.3     
   2 C2             0.0021    -0.0041     0.0020 C.3     
   3 O3             0.6709    -0.4649    -1.1737 O.3     
   4 C4             0.7765    -1.8064    -1.3357 C.ar    
   5 C5             1.4135    -2.3327    -2.4538 C.ar    
   6 C6             1.4984    -3.7148    -2.5787 C.ar    
   7 O7             2.1111    -4.2707    -3.6522 O.3     
   8 C8             2.1564    -5.6980    -3.7063 C.3     
   9 C9             2.8811    -6.1373    -4.9801 C.3     
  10 N10            0.9714    -4.4837    -1.6314 N.ar    
  11 C11            0.3714    -3.9480    -0.5790 C.ar    
  12 N12            0.2772    -2.6357    -0.4251 N.ar    
  13 N13           -0.1661    -4.7805     0.3870 N.pl3   
  14 C14           -0.8338    -4.2077     1.5584 C.3     
  15 C15           -2.2996    -4.0237     1.2612 C.ar    
  16 C16           -3.1931    -5.0421     1.5377 C.ar    
  17 C17           -4.5373    -4.8758     1.2661 C.ar    
  18 C18           -4.9906    -3.6858     0.7156 C.ar    
  19 C19           -4.0922    -2.6655     0.4391 C.ar    
  20 C20           -2.7497    -2.8346     0.7178 C.ar    
  21 O21           -6.3125    -3.5201     0.4471 O.3     
  22 C22           -6.7075    -2.2690    -0.1193 C.3     
  23 C23           -0.0674    -6.2345     0.2381 C.3     
  24 C24            1.2034    -6.7207     0.8860 C.ar    
  25 C25            1.2014    -7.0891     2.2187 C.ar    
  26 C26            2.3650    -7.5351     2.8149 C.ar    
  27 C27            3.5362    -7.6133     2.0753 C.ar    
  28 C28            3.5355    -7.2431     0.7383 C.ar    
  29 C29            2.3679    -6.8031     0.1452 C.ar    
  30 O30            4.6823    -8.0513     2.6597 O.3     
  31 C31            5.8498    -8.1058     1.8376 C.3     
  32 H32            1.0039     1.9031     0.0027 H       
  33 H33           -0.5459     1.8868    -0.8726 H       
  34 H34           -0.5289     1.8773     0.9072 H       
  35 H35            0.5293    -0.3651     0.8851 H       
  36 H36           -1.0205    -0.3814     0.0098 H       
  37 H37            1.8323    -1.6830    -3.2081 H       
  38 H38            2.6903    -6.0778    -2.8351 H       
  39 H39            1.1409    -6.0939    -3.7111 H       
  40 H40            2.9157    -7.2260    -5.0213 H       
  41 H41            2.3472    -5.7575    -5.8512 H       
  42 H42            3.8967    -5.7415    -4.9753 H       
  43 H43           -0.7170    -4.8802     2.4082 H       
  44 H44           -0.3870    -3.2420     1.7953 H       
  45 H45           -2.8396    -5.9684     1.9659 H       
  46 H46           -5.2347    -5.6718     1.4819 H       
  47 H47           -4.4426    -1.7382     0.0106 H       
  48 H48           -2.0499    -2.0406     0.5027 H       
  49 H49           -6.1950    -2.1226    -1.0700 H       
  50 H50           -7.7851    -2.2686    -0.2836 H       
  51 H51           -6.4439    -1.4615     0.5638 H       
  52 H52           -0.9240    -6.7078     0.7180 H       
  53 H53           -0.0566    -6.4914    -0.8211 H       
  54 H54            0.2896    -7.0277     2.7941 H       
  55 H55            2.3631    -7.8224     3.8560 H       
  56 H56            4.4459    -7.3031     0.1604 H       
  57 H57            2.3669    -6.5148    -0.8956 H       
  58 H58            6.6916    -8.4715     2.4258 H       
  59 H59            5.6727    -8.7793     0.9991 H       
  60 H60            6.0759    -7.1083     1.4609 H       
@<TRIPOS>BOND
   1    1    2 1
   2    1   32 1
   3    1   33 1
   4    1   34 1
   5    2    3 1
   6    2   35 1
   7    2   36 1
   8    3    4 1
   9    4    5 ar
  10    4   12 ar
  11    5    6 ar
  12    5   37 1
  13    6    7 1
  14    6   10 ar
  15    7    8 1
  16    8    9 1
  17    8   38 1
  18    8   39 1
  19    9   40 1
  20    9   41 1
  21    9   42 1
  22   10   11 ar
  23   11   12 ar
  24   11   13 1
  25   13   14 1
  26   13   23 1
  27   14   15 1
  28   14   43 1
  29   14   44 1
  30   15   16 ar
  31   15   20 ar
  32   16   17 ar
  33   16   45 1
  34   17   18 ar
  35   17   46 1
  36   18   19 ar
  37   18   21 1
  38   19   20 ar
  39   19   47 1
  40   20   48 1
  41   21   22 1
  42   22   49 1
  43   22   50 1
  44   22   51 1
  45   23   24 1
  46   23   52 1
  47   23   53 1
  48   24   25 ar
  49   24   29 ar
  50   25   26 ar
  51   25   54 1
  52   26   27 ar
  53   26   55 1
  54   27   28 ar
  55   27   30 1
  56   28   29 ar
  57   28   56 1
  58   29   57 1
  59   30   31 1
  60   31   58 1
  61   31   59 1
  62   31   60 1

#	End of record

