#	Name: ASD01148797
#	Creating user name:	WinNT
#	Creation time:	15. 06. 2019 19:03

#	Modifying user name:	WinNT
#	Modification time:	15. 06. 2019 19:03

#	Program:	/corina/corina34_cracker 3.40 0067  02.08.2006

@<TRIPOS>MOLECULE
ASD01148797
  65   68    0    0    0
SMALL
NO_CHARGES


@<TRIPOS>ATOM
   1 N1            -0.0572     1.4887    -0.3427 N.pl3   
   2 C2            -0.0372     0.1355    -0.3758 C.2     
   3 C3             1.2440    -0.2988    -0.1151 C.2     
   4 C4             2.0561     0.9119     0.0911 C.2     
   5 C5             1.1938     1.9795    -0.0630 C.2     
   6 C6             1.7074    -1.6924    -0.0541 C.2     
   7 O7             2.1183    -2.2408    -1.0582 O.2     
   8 O8             1.6767    -2.3624     1.1152 O.3     
   9 C9            -1.1930     2.2770    -0.5682 C.ar    
  10 C10           -2.2449     2.2570     0.3380 C.ar    
  11 C11           -3.3632     3.0357     0.1132 C.ar    
  12 C12           -3.4360     3.8347    -1.0131 C.ar    
  13 C13           -2.3904     3.8565    -1.9177 C.ar    
  14 C14           -1.2669     3.0844    -1.6955 C.ar    
  15 S15           -4.8644     4.8267    -1.2964 S.o2    
  16 O16           -4.9121     5.0713    -2.6954 O.2     
  17 O17           -5.9268     4.2149    -0.5778 O.2     
  18 N18           -4.5945     6.2923    -0.5744 N.am    
  19 C19           -1.2236    -0.7517    -0.6523 C.3     
  20 C20            3.5022     0.9724     0.4015 C.ar    
  21 C21            4.4382     0.5527    -0.5427 C.ar    
  22 C22            5.7909     0.6127    -0.2453 C.ar    
  23 C23            6.2100     1.0902     0.9915 C.ar    
  24 C24            5.2818     1.5062     1.9271 C.ar    
  25 C25            3.9330     1.4551     1.6378 C.ar    
  26 N26            6.7327     0.1929    -1.1877 N.pl3   
  27 C27            6.2942    -0.2580    -2.5108 C.3     
  28 C28            8.1589     0.2037    -0.8530 C.3     
  29 C29            1.5560     3.4062     0.0530 C.ar    
  30 C30            0.8584     4.2376     0.9321 C.ar    
  31 C31            1.2019     5.5692     1.0361 C.ar    
  32 C32            2.2357     6.0825     0.2709 C.ar    
  33 C33            2.9313     5.2633    -0.6027 C.ar    
  34 C34            2.6014     3.9287    -0.7117 C.ar    
  35 Cl35           2.6612     7.7600     0.4068 Cl      
  36 C36            2.1497    -3.7351     1.1011 C.3     
  37 C37            2.0396    -4.3270     2.5076 C.3     
  38 H38           -2.1887     1.6329     1.2177 H       
  39 H39           -4.1818     3.0203     0.8175 H       
  40 H40           -2.4505     4.4810    -2.7968 H       
  41 H41           -0.4485     3.1054    -2.3999 H       
  42 H42           -3.7600     6.4569    -0.1080 H       
  43 H43           -5.2708     6.9863    -0.6178 H       
  44 H44           -1.2962    -0.9379    -1.7238 H       
  45 H45           -1.0997    -1.6985    -0.1265 H       
  46 H46           -2.1331    -0.2604    -0.3064 H       
  47 H47            4.1105     0.1818    -1.5026 H       
  48 H48            7.2642     1.1360     1.2218 H       
  49 H49            5.6130     1.8762     2.8861 H       
  50 H50            3.2109     1.7849     2.3701 H       
  51 H51            6.2611     0.5923    -3.1919 H       
  52 H52            6.9943    -1.0016    -2.8917 H       
  53 H53            5.3010    -0.7003    -2.4332 H       
  54 H54            8.2842     0.4764     0.1949 H       
  55 H55            8.5796    -0.7874    -1.0232 H       
  56 H56            8.6742     0.9299    -1.4816 H       
  57 H57            0.0515     3.8386     1.5289 H       
  58 H58            0.6633     6.2131     1.7155 H       
  59 H59            3.7366     5.6696    -1.1967 H       
  60 H60            3.1475     3.2899    -1.3900 H       
  61 H61            1.5425    -4.3215     0.4115 H       
  62 H62            3.1905    -3.7575     0.7779 H       
  63 H63            2.3947    -5.3575     2.4970 H       
  64 H64            2.6469    -3.7406     3.1972 H       
  65 H65            0.9989    -4.3046     2.8308 H       
@<TRIPOS>BOND
   1    1    2 1
   2    1    5 1
   3    1    9 1
   4    2    3 2
   5    2   19 1
   6    3    4 1
   7    3    6 1
   8    4    5 2
   9    4   20 1
  10    5   29 1
  11    6    7 2
  12    6    8 1
  13    8   36 1
  14    9   10 ar
  15    9   14 ar
  16   10   11 ar
  17   10   38 1
  18   11   12 ar
  19   11   39 1
  20   12   13 ar
  21   12   15 1
  22   13   14 ar
  23   13   40 1
  24   14   41 1
  25   15   16 2
  26   15   17 2
  27   15   18 am
  28   18   42 1
  29   18   43 1
  30   19   44 1
  31   19   45 1
  32   19   46 1
  33   20   21 ar
  34   20   25 ar
  35   21   22 ar
  36   21   47 1
  37   22   23 ar
  38   22   26 1
  39   23   24 ar
  40   23   48 1
  41   24   25 ar
  42   24   49 1
  43   25   50 1
  44   26   27 1
  45   26   28 1
  46   27   51 1
  47   27   52 1
  48   27   53 1
  49   28   54 1
  50   28   55 1
  51   28   56 1
  52   29   30 ar
  53   29   34 ar
  54   30   31 ar
  55   30   57 1
  56   31   32 ar
  57   31   58 1
  58   32   33 ar
  59   32   35 1
  60   33   34 ar
  61   33   59 1
  62   34   60 1
  63   36   37 1
  64   36   61 1
  65   36   62 1
  66   37   63 1
  67   37   64 1
  68   37   65 1

#	End of record

