#	Name: ASD05490017
#	Creating user name:	WinNT
#	Creation time:	15. 06. 2019 21:00

#	Modifying user name:	WinNT
#	Modification time:	15. 06. 2019 21:00

#	Program:	/corina/corina34_cracker 3.40 0067  02.08.2006

@<TRIPOS>MOLECULE
ASD05490017
  70   74    0    0    0
SMALL
NO_CHARGES


@<TRIPOS>ATOM
   1 O1            -0.0173     1.4248     0.0099 O.3     
   2 N2             2.7241     5.3595     0.0030 N.pl3   
   3 N3             2.2883     1.3280    -0.0127 N.ar    
   4 C4             3.4877     1.9005    -0.0215 C.ar    
   5 C5             1.1818     2.0565     0.0018 C.ar    
   6 N6             1.2068     3.3779     0.0082 N.ar    
   7 C7             2.3634     4.0326     0.0003 C.ar    
   8 C8             3.5624     3.3026    -0.0151 C.ar    
   9 N9             4.6391     1.1308    -0.0361 N.pl3   
  10 C10            4.0899     5.4129    -0.0163 C.2     
  11 N11            4.5806     4.2015    -0.0210 N.2     
  12 C12            1.8119     6.5058     0.0175 C.3     
  13 C13            1.5133     6.8921     1.4432 C.ar    
  14 C14            2.3152     7.8156     2.0894 C.ar    
  15 C15            2.0462     8.1730     3.3951 C.ar    
  16 C16            0.9644     7.6020     4.0622 C.ar    
  17 C17            0.1597     6.6726     3.4064 C.ar    
  18 C18            0.4349     6.3261     2.0990 C.ar    
  19 C19            0.0021    -0.0041     0.0020 C.3     
  20 C20           -1.4333    -0.5336     0.0129 C.3     
  21 C21           -1.4126    -2.0635     0.0045 C.3     
  22 C22           -2.8479    -2.5931     0.0153 C.3     
  23 C23            0.6706     7.9820     5.4662 C.ar    
  24 C24           -0.4113     7.4111     6.1334 C.ar    
  25 C25            1.4790     8.9068     6.1241 C.ar    
  26 C26            1.2011     9.2566     7.4300 C.ar    
  27 C27            0.1227     8.6907     8.0858 C.ar    
  28 C28           -0.6800     7.7682     7.4392 C.ar    
  29 C29           -0.1751     9.0759     9.5119 C.3     
  30 N30           -1.0839    10.2299     9.5279 N.3     
  31 C31           -1.5862    10.4881    10.8899 C.3     
  32 C32           -1.2164    11.9436    11.2453 C.3     
  33 C33           -1.0285    12.6058     9.8550 C.3     
  34 C34           -0.4028    11.4475     9.0386 C.3     
  35 O35            4.8243     6.5500    -0.0203 O.3     
  36 C36            6.2458     6.4042    -0.0300 C.3     
  37 H37            4.5753     0.1629    -0.0401 H       
  38 H38            5.5091     1.5596    -0.0425 H       
  39 H39            2.2770     7.3467    -0.4969 H       
  40 H40            0.8842     6.2383    -0.4884 H       
  41 H41            3.1534     8.2575     1.5713 H       
  42 H42            2.6734     8.8936     3.8988 H       
  43 H43           -0.6801     6.2270     3.9188 H       
  44 H44           -0.1884     5.6061     1.5896 H       
  45 H45            0.5123    -0.3556    -0.8948 H       
  46 H46            0.5293    -0.3651     0.8851 H       
  47 H47           -1.9435    -0.1821     0.9097 H       
  48 H48           -1.9605    -0.1726    -0.8702 H       
  49 H49           -0.9024    -2.4150    -0.8923 H       
  50 H50           -0.8854    -2.4246     0.8875 H       
  51 H51           -3.3581    -2.2415     0.9121 H       
  52 H52           -3.3751    -2.2320    -0.8677 H       
  53 H53           -2.8332    -3.6829     0.0093 H       
  54 H54           -1.0386     6.6907     5.6295 H       
  55 H55            2.3216     9.3487     5.6132 H       
  56 H56            1.8270     9.9733     7.9408 H       
  57 H57           -1.5207     7.3293     7.9559 H       
  58 H58           -0.6448     8.2364    10.0245 H       
  59 H59            0.7535     9.3377    10.0191 H       
  60 H60           -2.6688    10.3637    10.9156 H       
  61 H61           -1.1152     9.8031    11.5949 H       
  62 H62           -2.0262    12.4238    11.7946 H       
  63 H63           -0.2888    11.9770    11.8166 H       
  64 H64           -1.9873    12.9073     9.4333 H       
  65 H65           -0.3463    13.4538     9.9154 H       
  66 H66            0.6687    11.3851     9.2283 H       
  67 H67           -0.5932    11.5871     7.9745 H       
  68 H68            6.7121     7.3894    -0.0323 H       
  69 H69            6.5608     5.8553     0.8575 H       
  70 H70            6.5488     5.8567    -0.9224 H       
@<TRIPOS>BOND
   1    1   19 1
   2    1    5 1
   3    2   12 1
   4    2    7 1
   5    2   10 1
   6    3    4 ar
   7    3    5 ar
   8    4    9 1
   9    4    8 ar
  10    5    6 ar
  11    6    7 ar
  12    7    8 ar
  13    8   11 1
  14    9   37 1
  15    9   38 1
  16   10   11 2
  17   10   35 1
  18   12   13 1
  19   12   39 1
  20   12   40 1
  21   13   14 ar
  22   13   18 ar
  23   14   15 ar
  24   14   41 1
  25   15   16 ar
  26   15   42 1
  27   16   17 ar
  28   16   23 1
  29   17   18 ar
  30   17   43 1
  31   18   44 1
  32   19   20 1
  33   19   45 1
  34   19   46 1
  35   20   21 1
  36   20   47 1
  37   20   48 1
  38   21   22 1
  39   21   49 1
  40   21   50 1
  41   22   51 1
  42   22   52 1
  43   22   53 1
  44   23   24 ar
  45   23   25 ar
  46   24   28 ar
  47   24   54 1
  48   25   26 ar
  49   25   55 1
  50   26   27 ar
  51   26   56 1
  52   27   28 ar
  53   27   29 1
  54   28   57 1
  55   29   30 1
  56   29   58 1
  57   29   59 1
  58   30   31 1
  59   30   34 1
  60   31   32 1
  61   31   60 1
  62   31   61 1
  63   32   33 1
  64   32   62 1
  65   32   63 1
  66   33   34 1
  67   33   64 1
  68   33   65 1
  69   34   66 1
  70   34   67 1
  71   35   36 1
  72   36   68 1
  73   36   69 1
  74   36   70 1

#	End of record

