#	Name: ASD05430261
#	Creating user name:	WinNT
#	Creation time:	15. 06. 2019 21:00

#	Modifying user name:	WinNT
#	Modification time:	15. 06. 2019 21:00

#	Program:	/corina/corina34_cracker 3.40 0067  02.08.2006

@<TRIPOS>MOLECULE
ASD05430261
  77   84    0    0    0
SMALL
NO_CHARGES


@<TRIPOS>ATOM
   1 C1             1.0708     1.2073    -1.5489 C.ar    
   2 C2             0.3014     0.8095    -0.4518 C.ar    
   3 C3             0.6487     1.2178     0.8253 C.ar    
   4 C4             1.7567     2.0194     1.0233 C.ar    
   5 C5             2.5198     2.4188    -0.0599 C.ar    
   6 C6             2.1756     2.0186    -1.3329 C.ar    
   7 C7             5.0105     1.3858     1.1378 C.3     
   8 C8             4.4980     2.8093     1.3814 C.3     
   9 C9             3.7284     3.2934     0.1528 C.3     
  10 C10            3.8282     0.4123     1.1681 C.3     
  11 C11            3.1036     0.3171     2.5176 C.3     
  12 N12            2.8863     1.6793     3.0061 N.pl3   
  13 C13            3.5765     2.7993     2.5807 C.2     
  14 N14            3.3296     3.7973     3.3549 N.2     
  15 N15           -0.8254    -0.0050    -0.6448 N.pl3   
  16 C16           -1.0685    -1.2143    -0.0474 C.2     
  17 C17           -2.2555    -1.6479    -0.5130 C.2     
  18 N18           -2.7282    -0.7322    -1.3713 N.2     
  19 C19           -1.8832     0.2594    -1.4542 C.2     
  20 C20           -2.9350    -2.9388    -0.1350 C.3     
  21 C21            1.9148     2.1382     4.0047 C.3     
  22 O22            2.4454     3.4206     4.3990 O.3     
  23 C23            0.5480     2.2922     3.3888 C.ar    
  24 O24            0.9247     0.9140    -2.8707 O.3     
  25 C25            1.8692     1.1805     5.1970 C.3     
  26 C26           -0.4026     1.3034     3.5612 C.ar    
  27 C27           -1.0092     3.5673     2.0918 C.ar    
  28 C28            0.2440     3.4248     2.6567 C.ar    
  29 C29           -1.9603     2.5750     2.2590 C.ar    
  30 F30           -3.1857     2.7132     1.7072 F       
  31 C31           -1.6563     1.4435     2.9969 C.ar    
  32 C32            4.6369     3.2183    -1.0791 C.3     
  33 C33            5.6803     3.7377     1.6584 C.3     
  34 C34            6.6610     3.6785     0.4823 C.3     
  35 C35            5.9048     3.9909    -0.7901 C.2     
  36 O36            6.3035     4.8354    -1.5558 O.2     
  37 O37            5.2076     5.0768     1.8178 O.3     
  38 C38            6.0044     5.8738     2.6963 C.3     
  39 C39            1.6576     1.8735    -3.6515 C.3     
  40 F40            3.0802     3.6634    -2.8329 F       
  41 C41            2.7912     2.3021    -2.6897 C.3     
  42 F42            3.9375     1.5257    -2.8905 F       
  43 C43            2.9882     0.2706    -0.0996 C.3     
  44 C44            3.9293    -0.8585     0.3265 C.3     
  45 H45            0.0508     0.9086     1.6699 H       
  46 H46            2.0262     2.3338     2.0207 H       
  47 H47            5.4982     1.3360     0.1643 H       
  48 H48            5.7235     1.1171     1.9172 H       
  49 H49            3.4088     4.3240     0.3069 H       
  50 H50            2.1453    -0.1855     2.3873 H       
  51 H51            3.7178    -0.2361     3.2281 H       
  52 H52           -0.4303    -1.7224     0.6604 H       
  53 H53           -2.0022     1.1393    -2.0690 H       
  54 H54           -3.5771    -2.7718     0.7299 H       
  55 H55           -3.5376    -3.2910    -0.9722 H       
  56 H56           -2.1819    -3.6875     0.1108 H       
  57 H57            2.8541     1.1311     5.6613 H       
  58 H58            1.1421     1.5407     5.9248 H       
  59 H59            1.5788     0.1873     4.8544 H       
  60 H60           -0.1653     0.4210     4.1369 H       
  61 H61           -1.2464     4.4520     1.5196 H       
  62 H62            0.9860     4.1986     2.5264 H       
  63 H63           -2.3986     0.6706     3.1311 H       
  64 H64            4.8824     2.1775    -1.2900 H       
  65 H65            4.1277     3.6581    -1.9367 H       
  66 H66            6.1863     3.4198     2.5700 H       
  67 H67            7.4522     4.4139     0.6279 H       
  68 H68            7.0930     2.6800     0.4157 H       
  69 H69            7.0213     5.9357     2.3087 H       
  70 H70            5.5798     6.8754     2.7638 H       
  71 H71            6.0201     5.4183     3.6864 H       
  72 H72            2.0673     1.4093    -4.5486 H       
  73 H73            1.0269     2.7244    -3.9091 H       
  74 H74            1.9175     0.1062     0.0218 H       
  75 H75            3.2774     0.8676    -0.9644 H       
  76 H76            4.8377    -1.0042    -0.2580 H       
  77 H77            3.4778    -1.7656     0.7282 H       
@<TRIPOS>BOND
   1    1    2 ar
   2    1    6 ar
   3    1   24 1
   4    2    3 ar
   5    2   15 1
   6    3    4 ar
   7    3   45 1
   8    4    5 ar
   9    4   46 1
  10    5    6 ar
  11    5    9 1
  12    6   41 1
  13    7    8 1
  14    7   10 1
  15    7   47 1
  16    7   48 1
  17    8    9 1
  18    8   33 1
  19    8   13 1
  20    9   32 1
  21    9   49 1
  22   10   11 1
  23   10   43 1
  24   10   44 1
  25   11   12 1
  26   11   50 1
  27   11   51 1
  28   12   13 1
  29   12   21 1
  30   13   14 2
  31   14   22 1
  32   15   16 1
  33   15   19 1
  34   16   17 2
  35   16   52 1
  36   17   18 1
  37   17   20 1
  38   18   19 2
  39   19   53 1
  40   20   54 1
  41   20   55 1
  42   20   56 1
  43   21   22 1
  44   21   23 1
  45   21   25 1
  46   23   26 ar
  47   23   28 ar
  48   24   39 1
  49   25   57 1
  50   25   58 1
  51   25   59 1
  52   26   31 ar
  53   26   60 1
  54   27   28 ar
  55   27   29 ar
  56   27   61 1
  57   28   62 1
  58   29   30 1
  59   29   31 ar
  60   31   63 1
  61   32   35 1
  62   32   64 1
  63   32   65 1
  64   33   34 1
  65   33   37 1
  66   33   66 1
  67   34   35 1
  68   34   67 1
  69   34   68 1
  70   35   36 2
  71   37   38 1
  72   38   69 1
  73   38   70 1
  74   38   71 1
  75   39   41 1
  76   39   72 1
  77   39   73 1
  78   40   41 1
  79   41   42 1
  80   43   44 1
  81   43   74 1
  82   43   75 1
  83   44   76 1
  84   44   77 1

#	End of record

