#	Name: ASD01917231
#	Creating user name:	WinNT
#	Creation time:	15. 06. 2019 20:08

#	Modifying user name:	WinNT
#	Modification time:	15. 06. 2019 20:08

#	Program:	/corina/corina34_cracker 3.40 0067  02.08.2006

@<TRIPOS>MOLECULE
ASD01917231
  48   51    0    0    0
SMALL
NO_CHARGES


@<TRIPOS>ATOM
   1 C1            -0.0168     1.4183    -0.0033 C.ar    
   2 C2             0.0060     0.0043    -0.0130 C.ar    
   3 C3            -1.1867    -0.7170     0.0287 C.ar    
   4 C4            -2.3789    -0.0522     0.0657 C.ar    
   5 C5            -2.4151     1.3433     0.0626 C.ar    
   6 C6            -1.2432     2.0801     0.0286 C.ar    
   7 N7             1.1581     2.0865    -0.0146 N.2     
   8 C8             2.3193     1.4815    -0.0613 C.2     
   9 N9             2.4220     0.1337    -0.1803 N.am    
  10 C10            1.3142    -0.6512    -0.0821 C.2     
  11 N11           -3.6445     2.0023     0.0942 N.am    
  12 O12            1.4081    -1.8648    -0.0528 O.2     
  13 C13            3.5338     2.3614     0.0764 C.3     
  14 C14            4.7896     1.7118    -0.4616 C.3     
  15 C15            4.8987     0.2554    -0.0589 C.3     
  16 C16            3.6819    -0.5450    -0.4644 C.3     
  17 C17            6.1357    -0.3516    -0.7238 C.3     
  18 C18            5.0637     0.1718     1.4598 C.3     
  19 C19           -3.7679     3.1669     0.7612 C.2     
  20 N20           -4.9235     3.8579     0.7025 N.am    
  21 C21           -5.0887     5.0065     1.4746 C.ar    
  22 N22           -4.0720     5.4729     2.1819 N.ar    
  23 C23           -4.1858     6.5567     2.9258 C.ar    
  24 C24           -5.3795     7.2472     2.9929 C.ar    
  25 C25           -6.4706     6.7907     2.2656 C.ar    
  26 C26           -6.3186     5.6551     1.4902 C.ar    
  27 O27           -2.8368     3.5941     1.4158 O.2     
  28 H28           -1.1676    -1.7968     0.0314 H       
  29 H29           -3.3024    -0.6112     0.0972 H       
  30 H30           -1.2792     3.1595     0.0268 H       
  31 H31           -4.4104     1.6222    -0.3640 H       
  32 H32            3.3584     3.2907    -0.4657 H       
  33 H33            3.6821     2.5942     1.1309 H       
  34 H34            4.7841     1.7785    -1.5495 H       
  35 H35            5.6574     2.2501    -0.0804 H       
  36 H36            3.6950    -1.4955     0.0690 H       
  37 H37            3.7368    -0.7468    -1.5342 H       
  38 H38            7.0250     0.1881    -0.3982 H       
  39 H39            6.2230    -1.4004    -0.4400 H       
  40 H40            6.0405    -0.2751    -1.8070 H       
  41 H41            4.1987     0.6242     1.9448 H       
  42 H42            5.1431    -0.8731     1.7597 H       
  43 H43            5.9669     0.7047     1.7570 H       
  44 H44           -5.6403     3.5559     0.1229 H       
  45 H45           -3.3343     6.9080     3.4897 H       
  46 H46           -5.4637     8.1330     3.6049 H       
  47 H47           -7.4154     7.3126     2.3013 H       
  48 H48           -7.1465     5.2724     0.9119 H       
@<TRIPOS>BOND
   1    1    2 ar
   2    1    7 1
   3    1    6 ar
   4    2    3 ar
   5    2   10 1
   6    3    4 ar
   7    3   28 1
   8    4    5 ar
   9    4   29 1
  10    5    6 ar
  11    5   11 1
  12    6   30 1
  13    7    8 2
  14    8    9 1
  15    8   13 1
  16    9   10 am
  17    9   16 1
  18   10   12 2
  19   11   19 am
  20   11   31 1
  21   13   14 1
  22   13   32 1
  23   13   33 1
  24   14   15 1
  25   14   34 1
  26   14   35 1
  27   15   16 1
  28   15   17 1
  29   15   18 1
  30   16   36 1
  31   16   37 1
  32   17   38 1
  33   17   39 1
  34   17   40 1
  35   18   41 1
  36   18   42 1
  37   18   43 1
  38   19   20 am
  39   19   27 2
  40   20   21 1
  41   20   44 1
  42   21   22 ar
  43   21   26 ar
  44   22   23 ar
  45   23   24 ar
  46   23   45 1
  47   24   25 ar
  48   24   46 1
  49   25   26 ar
  50   25   47 1
  51   26   48 1

#	End of record

