#	Name: ASD01700012
#	Creating user name:	WinNT
#	Creation time:	15. 06. 2019 19:22

#	Modifying user name:	WinNT
#	Modification time:	15. 06. 2019 19:22

#	Program:	/corina/corina34_cracker 3.40 0067  02.08.2006

@<TRIPOS>MOLECULE
ASD01700012
  65   67    0    0    0
SMALL
NO_CHARGES


@<TRIPOS>ATOM
   1 C1             0.5783     2.2093     0.1964 C.3     
   2 O2             1.5518    -0.1376    -5.1184 O.3     
   3 C3             0.9307     0.7477     0.4651 C.3     
   4 O4             3.3048    -0.8603    -6.2857 O.2     
   5 C5            -0.3631    -0.0076     0.8010 C.3     
   6 O6             1.9150    -3.3553    -4.1004 O.3     
   7 C7            -1.2649     0.0737    -0.4040 C.2     
   8 O8             1.7899     2.9309    -0.1495 O.3     
   9 C9            -2.1112     1.1576    -2.3949 C.2     
  10 O10            2.0776     3.3781     1.9954 O.2     
  11 C11           -1.8978     2.0656    -3.3316 C.2     
  12 C12           -0.8359     3.1196    -3.2566 C.3     
  13 C13            0.2516     2.7571    -2.2445 C.3     
  14 C14           -0.4172     2.3540    -0.9289 C.3     
  15 C15            1.0798     1.5865    -2.7781 C.3     
  16 C16            0.1443     0.4587    -3.2183 C.3     
  17 C17            0.9600    -0.6475    -3.8905 C.3     
  18 C18            0.0434    -1.8272    -4.2260 C.3     
  19 C19            0.8526    -2.9102    -4.9461 C.3     
  20 C20            1.4361    -2.3213    -6.2363 C.3     
  21 C21            3.7435     4.2538     0.5778 C.3     
  22 C22            4.3235     4.7824     1.8912 C.3     
  23 C23            5.5394     5.6623     1.5942 C.3     
  24 C24            4.7599     3.3270    -0.0921 C.3     
  25 C25           -0.1981     3.2842    -4.6375 C.3     
  26 C26           -0.0437    -1.4711     1.1124 C.3     
  27 C27            2.1802    -1.0512    -5.8874 C.2     
  28 C28            2.4761     3.4890     0.8602 C.2     
  29 C29           -1.2559     1.1371    -1.1859 C.2     
  30 H30            0.1538     2.6436     1.1015 H       
  31 H31            1.3906     0.3118    -0.4218 H       
  32 H32            1.6213     0.6851     1.3060 H       
  33 H33           -0.8498     0.4561     1.6590 H       
  34 H34            2.4694    -4.0429    -4.4940 H       
  35 H35           -1.9269    -0.7490    -0.6307 H       
  36 H36           -2.9053     0.4347    -2.5104 H       
  37 H37           -2.5299     2.0466    -4.2071 H       
  38 H38           -1.2932     4.0645    -2.9630 H       
  39 H39            0.8976     3.6190    -2.0773 H       
  40 H40           -1.1016     3.1574    -0.6563 H       
  41 H41            1.6732     1.9195    -3.6296 H       
  42 H42            1.7429     1.2229    -1.9931 H       
  43 H43           -0.3702     0.0526    -2.3474 H       
  44 H44           -0.5889     0.8494    -3.9240 H       
  45 H45            1.7495    -0.9789    -3.2159 H       
  46 H46           -0.3741    -2.2365    -3.3061 H       
  47 H47           -0.7653    -1.4869    -4.8729 H       
  48 H48            0.2025    -3.7509    -5.1884 H       
  49 H49            2.1229    -3.0367    -6.6886 H       
  50 H50            0.6297    -2.0945    -6.9338 H       
  51 H51            3.5229     5.0906    -0.0848 H       
  52 H52            3.5677     5.3707     2.4115 H       
  53 H53            4.6264     3.9438     2.5183 H       
  54 H54            5.2366     6.5009     0.9672 H       
  55 H55            5.9526     6.0389     2.5299 H       
  56 H56            6.2953     5.0740     1.0740 H       
  57 H57            5.6767     3.8801    -0.2963 H       
  58 H58            4.9805     2.4901     0.5705 H       
  59 H59            4.3467     2.9504    -1.0278 H       
  60 H60           -0.9506     3.6297    -5.3465 H       
  61 H61            0.6093     4.0143    -4.5802 H       
  62 H62            0.2014     2.3261    -4.9698 H       
  63 H63            0.6343    -1.5217     1.9643 H       
  64 H64           -0.9658    -2.0017     1.3499 H       
  65 H65            0.4279    -1.9326     0.2448 H       
@<TRIPOS>BOND
   1    1    3 1
   2    1    8 1
   3    1   14 1
   4    1   30 1
   5    2   17 1
   6    2   27 1
   7    3    5 1
   8    3   31 1
   9    3   32 1
  10    4   27 2
  11    5    7 1
  12    5   26 1
  13    5   33 1
  14    6   19 1
  15    6   34 1
  16    7   29 2
  17    7   35 1
  18    8   28 1
  19    9   11 2
  20    9   29 1
  21    9   36 1
  22   10   28 2
  23   11   12 1
  24   11   37 1
  25   12   13 1
  26   12   25 1
  27   12   38 1
  28   13   14 1
  29   13   15 1
  30   13   39 1
  31   14   29 1
  32   14   40 1
  33   15   16 1
  34   15   41 1
  35   15   42 1
  36   16   17 1
  37   16   43 1
  38   16   44 1
  39   17   18 1
  40   17   45 1
  41   18   19 1
  42   18   46 1
  43   18   47 1
  44   19   20 1
  45   19   48 1
  46   20   27 1
  47   20   49 1
  48   20   50 1
  49   21   22 1
  50   21   24 1
  51   21   28 1
  52   21   51 1
  53   22   23 1
  54   22   52 1
  55   22   53 1
  56   23   54 1
  57   23   55 1
  58   23   56 1
  59   24   57 1
  60   24   58 1
  61   24   59 1
  62   25   60 1
  63   25   61 1
  64   25   62 1
  65   26   63 1
  66   26   64 1
  67   26   65 1

#	End of record

