#	Name: ASD01910886
#	Creating user name:	WinNT
#	Creation time:	15. 06. 2019 19:56

#	Modifying user name:	WinNT
#	Modification time:	15. 06. 2019 19:56

#	Program:	/corina/corina34_cracker 3.40 0067  02.08.2006

@<TRIPOS>MOLECULE
ASD01910886
  51   54    0    0    0
SMALL
NO_CHARGES


@<TRIPOS>ATOM
   1 C1             0.2149     1.5104    -0.2794 C.ar    
   2 N2             0.1649     0.1241    -0.1907 N.3     
   3 C3             1.5154    -0.4536    -0.2086 C.3     
   4 C4             1.4277    -1.9575     0.0721 C.3     
   5 N5             0.4824    -2.5566    -0.8823 N.am    
   6 C6            -0.8482    -1.9453    -1.0203 C.3     
   7 C7            -0.6710    -0.4419    -1.2579 C.3     
   8 C8             0.8262    -3.6372    -1.6106 C.2     
   9 C9            -0.1793    -4.3019    -2.4672 C.ar    
  10 C10            0.1805    -4.7735    -3.7315 C.ar    
  11 C11           -0.7569    -5.3947    -4.5336 C.ar    
  12 C12           -2.0550    -5.5542    -4.0927 C.ar    
  13 C13           -2.4297    -5.0865    -2.8292 C.ar    
  14 C14           -1.4861    -4.4640    -2.0123 C.ar    
  15 C15           -3.7769    -5.2520    -2.3729 C.1     
  16 O16            1.9628    -4.0654    -1.5634 O.2     
  17 C17           -4.8814    -5.3877    -1.9987 C.1     
  18 C18           -6.2286    -5.5531    -1.5424 C.ar    
  19 C19           -6.6139    -5.0898    -0.2820 C.ar    
  20 N20           -7.8530    -5.2424     0.1369 N.ar    
  21 C21           -8.7719    -5.8310    -0.6044 C.ar    
  22 C22           -8.4705    -6.3178    -1.8641 C.ar    
  23 C23           -7.1849    -6.1776    -2.3548 C.ar    
  24 N24            1.1330     2.0865    -1.0397 N.ar    
  25 C25            1.2146     3.3989    -1.1518 C.ar    
  26 C26            0.3387     4.2230    -0.4744 C.ar    
  27 C27           -0.6394     3.6585     0.3339 C.ar    
  28 C28           -0.7040     2.2801     0.4271 C.ar    
  29 C29           -1.7479     1.6211     1.2914 C.3     
  30 H30            1.9673    -0.2919    -1.1872 H       
  31 H31            2.1256     0.0244     0.5577 H       
  32 H32            2.4109    -2.4112    -0.0528 H       
  33 H33            1.0730    -2.1200     1.0898 H       
  34 H34           -1.3697    -2.3909    -1.8674 H       
  35 H35           -1.4218    -2.1066    -0.1076 H       
  36 H36           -1.6463     0.0447    -1.2527 H       
  37 H37           -0.1886    -0.2803    -2.2220 H       
  38 H38            1.1943    -4.6519    -4.0832 H       
  39 H39           -0.4727    -5.7570    -5.5105 H       
  40 H40           -2.7829    -6.0408    -4.7250 H       
  41 H41           -1.7695    -4.1007    -1.0355 H       
  42 H42           -5.8896    -4.6029     0.3541 H       
  43 H43           -9.7763    -5.9351    -0.2214 H       
  44 H44           -9.2325    -6.7981    -2.4600 H       
  45 H45           -6.9224    -6.5482    -3.3346 H       
  46 H46            1.9767     3.8338    -1.7814 H       
  47 H47            0.4135     5.2960    -0.5717 H       
  48 H48           -1.3363     4.2817     0.8745 H       
  49 H49           -2.6201     1.3767     0.6851 H       
  50 H50           -1.3383     0.7081     1.7235 H       
  51 H51           -2.0403     2.3020     2.0908 H       
@<TRIPOS>BOND
   1    1    2 1
   2    1   24 ar
   3    1   28 ar
   4    2    3 1
   5    2    7 1
   6    3    4 1
   7    3   30 1
   8    3   31 1
   9    4    5 1
  10    4   32 1
  11    4   33 1
  12    5    6 1
  13    5    8 am
  14    6    7 1
  15    6   34 1
  16    6   35 1
  17    7   36 1
  18    7   37 1
  19    8    9 1
  20    8   16 2
  21    9   10 ar
  22    9   14 ar
  23   10   11 ar
  24   10   38 1
  25   11   12 ar
  26   11   39 1
  27   12   13 ar
  28   12   40 1
  29   13   14 ar
  30   13   15 1
  31   14   41 1
  32   15   17 3
  33   17   18 1
  34   18   19 ar
  35   18   23 ar
  36   19   20 ar
  37   19   42 1
  38   20   21 ar
  39   21   22 ar
  40   21   43 1
  41   22   23 ar
  42   22   44 1
  43   23   45 1
  44   24   25 ar
  45   25   26 ar
  46   25   46 1
  47   26   27 ar
  48   26   47 1
  49   27   28 ar
  50   27   48 1
  51   28   29 1
  52   29   49 1
  53   29   50 1
  54   29   51 1

#	End of record

