#	Name: ASD07300186
#	Creating user name:	WinNT
#	Creation time:	15. 06. 2019 21:09

#	Modifying user name:	WinNT
#	Modification time:	15. 06. 2019 21:09

#	Program:	/corina/corina34_cracker 3.40 0067  02.08.2006

@<TRIPOS>MOLECULE
ASD07300186
  60   65    0    0    0
SMALL
NO_CHARGES


@<TRIPOS>ATOM
   1 C1            -0.0169     1.3940     0.0097 C.ar    
   2 C2             0.0021    -0.0041     0.0020 C.ar    
   3 C3             1.2200    -0.6674    -0.0132 C.ar    
   4 C4             2.3808     0.0923    -0.0202 C.ar    
   5 C5             2.2878     1.4713    -0.0119 C.ar    
   6 N6             1.1160     2.0768     0.0026 N.ar    
   7 C7            -2.1140     0.6621     0.0347 C.2     
   8 N8            -1.3544     1.7733     0.0301 N.am    
   9 N9            -1.3235    -0.4280     0.0124 N.am    
  10 O10           -3.3304     0.6451     0.0519 O.2     
  11 C11           -1.7801    -1.8200     0.0088 C.3     
  12 C12           -1.9251    -2.3129     1.4500 C.3     
  13 C13           -1.8311     3.0900     0.0441 C.ar    
  14 C14           -3.1993     3.3320     0.0641 C.ar    
  15 C15           -3.6714     4.6271     0.0779 C.ar    
  16 C16           -2.7743     5.6951     0.0722 C.ar    
  17 C17           -1.4014     5.4492     0.0525 C.ar    
  18 C18           -0.9350     4.1520     0.0437 C.ar    
  19 C19           -1.7363     9.0953     2.5910 C.2     
  20 N20           -1.8453     7.9396     2.0020 N.2     
  21 C21           -2.7730     8.0157     1.0166 C.ar    
  22 C22           -3.2632     9.3312     1.0141 C.ar    
  23 N23           -2.5877     9.9908     2.0221 N.pl3   
  24 C24           -3.2786     7.0882     0.0865 C.ar    
  25 C25           -4.2535     7.4885    -0.8182 C.ar    
  26 C26           -4.7262     8.7899    -0.8079 C.ar    
  27 C27           -4.2376     9.7075     0.0995 C.ar    
  28 C28           -0.8076     9.3955     3.7392 C.3     
  29 C29           -2.7571    11.3940     2.4074 C.3     
  30 C30           -1.8033    12.2510     1.6156 C.ar    
  31 C31           -2.1948    12.7783     0.3992 C.ar    
  32 C32           -1.3199    13.5643    -0.3271 C.ar    
  33 C33           -0.0537    13.8235     0.1631 C.ar    
  34 C34            0.3375    13.2969     1.3799 C.ar    
  35 C35           -0.5389    12.5145     2.1083 C.ar    
  36 H36            1.2635    -1.7465    -0.0190 H       
  37 H37            3.3476    -0.3890    -0.0316 H       
  38 H38            3.1908     2.0638    -0.0173 H       
  39 H39           -2.7439    -1.8850    -0.4961 H       
  40 H40           -1.0526    -2.4396    -0.5156 H       
  41 H41           -0.9613    -2.2479     1.9549 H       
  42 H42           -2.6525    -1.6932     1.9744 H       
  43 H43           -2.2648    -3.3486     1.4473 H       
  44 H44           -3.8935     2.5047     0.0686 H       
  45 H45           -4.7349     4.8146     0.0928 H       
  46 H46           -0.7045     6.2743     0.0480 H       
  47 H47            0.1280     3.9610     0.0326 H       
  48 H48           -4.6449     6.7808    -1.5340 H       
  49 H49           -5.4839     9.0896    -1.5168 H       
  50 H50           -4.6143    10.7197     0.0987 H       
  51 H51            0.1515     9.7380     3.3508 H       
  52 H52           -1.2444    10.1730     4.3660 H       
  53 H53           -0.6583     8.4927     4.3314 H       
  54 H54           -3.7813    11.7059     2.2028 H       
  55 H55           -2.5487    11.5063     3.4714 H       
  56 H56           -3.1841    12.5758     0.0162 H       
  57 H57           -1.6256    13.9757    -1.2778 H       
  58 H58            0.6301    14.4370    -0.4047 H       
  59 H59            1.3269    13.4991     1.7628 H       
  60 H60           -0.2346    12.1061     3.0607 H       
@<TRIPOS>BOND
   1    1    2 ar
   2    1    6 ar
   3    1    8 1
   4    2    3 ar
   5    2    9 1
   6    3    4 ar
   7    3   36 1
   8    4    5 ar
   9    4   37 1
  10    5    6 ar
  11    5   38 1
  12    7    8 am
  13    7    9 am
  14    7   10 2
  15    8   13 1
  16    9   11 1
  17   11   12 1
  18   11   39 1
  19   11   40 1
  20   12   41 1
  21   12   42 1
  22   12   43 1
  23   13   14 ar
  24   13   18 ar
  25   14   15 ar
  26   14   44 1
  27   15   16 ar
  28   15   45 1
  29   16   17 ar
  30   16   24 1
  31   17   18 ar
  32   17   46 1
  33   18   47 1
  34   19   20 2
  35   19   23 1
  36   19   28 1
  37   20   21 1
  38   21   22 ar
  39   21   24 ar
  40   22   23 1
  41   22   27 ar
  42   23   29 1
  43   24   25 ar
  44   25   26 ar
  45   25   48 1
  46   26   27 ar
  47   26   49 1
  48   27   50 1
  49   28   51 1
  50   28   52 1
  51   28   53 1
  52   29   30 1
  53   29   54 1
  54   29   55 1
  55   30   31 ar
  56   30   35 ar
  57   31   32 ar
  58   31   56 1
  59   32   33 ar
  60   32   57 1
  61   33   34 ar
  62   33   58 1
  63   34   35 ar
  64   34   59 1
  65   35   60 1

#	End of record

