#	Name: ASD03240311
#	Creating user name:	WinNT
#	Creation time:	15. 06. 2019 20:34

#	Modifying user name:	WinNT
#	Modification time:	15. 06. 2019 20:34

#	Program:	/corina/corina34_cracker 3.40 0067  02.08.2006

@<TRIPOS>MOLECULE
ASD03240311
  88   93    0    0    0
SMALL
NO_CHARGES


@<TRIPOS>ATOM
   1 C1             0.1005     1.7332     1.5345 C.2     
   2 N2             0.1769     0.5300     2.1955 N.pl3   
   3 O3            -3.4787     3.4892     1.2617 O.2     
   4 C4            -2.6157     4.1469     0.7199 C.2     
   5 C5            -1.1903     3.6580     0.7102 C.3     
   6 N6            -1.1089     2.3760     1.4145 N.pl3   
   7 N7             1.1755     2.2669     1.0262 N.2     
   8 N8            -2.9316     5.3150     0.1263 N.am    
   9 C9            -4.2633     5.7128     0.0368 C.ar    
  10 C10           -4.5957     7.0727     0.1200 C.ar    
  11 C11           -5.9248     7.4654     0.0302 C.ar    
  12 C12           -6.9217     6.5043    -0.1422 C.ar    
  13 C13           -6.5805     5.1508    -0.2240 C.ar    
  14 C14           -5.2615     4.7628    -0.1406 C.ar    
  15 C15           -8.3358     6.9163    -0.2377 C.2     
  16 N16           -9.2984     5.9878    -0.4042 N.am    
  17 O17           -8.6323     8.0934    -0.1661 O.2     
  18 C18          -10.6474     6.3639    -0.3720 C.ar    
  19 C19          -11.5959     5.6053    -1.0452 C.ar    
  20 C20          -11.0368     7.4921     0.3379 C.ar    
  21 C21          -12.3663     7.8627     0.3701 C.ar    
  22 C22          -13.3144     7.1070    -0.3075 C.ar    
  23 C23          -12.9255     5.9759    -1.0135 C.ar    
  24 N24          -14.6617     7.4822    -0.2747 N.pl3   
  25 C25          -15.6617     6.6850    -0.9894 C.3     
  26 C26          -15.0727     8.6721     0.4745 C.3     
  27 C27           -3.5313     8.0882     0.3036 C.ar    
  28 C28           -3.4813     9.2048    -0.5306 C.ar    
  29 C29           -2.4923    10.1482    -0.3599 C.ar    
  30 C30           -1.5411     9.9869     0.6470 C.ar    
  31 C31           -1.5910     8.8705     1.4812 C.ar    
  32 C32           -2.5833     7.9299     1.3144 C.ar    
  33 C33          -15.0200     9.8774    -0.4286 C.ar    
  34 C34          -16.1983     5.6145    -0.0745 C.ar    
  35 C35          -16.1332    10.2394    -1.1638 C.ar    
  36 C36          -16.0848    11.3450    -1.9922 C.ar    
  37 C37          -14.9233    12.0887    -2.0852 C.ar    
  38 C38          -13.8103    11.7272    -1.3493 C.ar    
  39 C39          -13.8601    10.6242    -0.5175 C.ar    
  40 C40          -17.3039     5.8702     0.7149 C.ar    
  41 C41          -17.7960     4.8883     1.5542 C.ar    
  42 C42          -17.1828     3.6504     1.6038 C.ar    
  43 C43          -16.0777     3.3943     0.8137 C.ar    
  44 C44          -15.5882     4.3749    -0.0287 C.ar    
  45 C45           -0.4760    11.0025     0.8304 C.ar    
  46 C46            0.4761    10.8440     1.8360 C.ar    
  47 C47            1.4652    11.7920     2.0017 C.ar    
  48 C48            1.5129    12.8980     1.1722 C.ar    
  49 C49            0.5707    13.0605     0.1726 C.ar    
  50 C50           -0.4198    12.1162    -0.0058 C.ar    
  51 H51            1.0308     0.0784     2.2836 H       
  52 H52           -0.6232     0.1328     2.5737 H       
  53 H53           -0.8576     3.5285    -0.3197 H       
  54 H54           -0.5525     4.3877     1.2090 H       
  55 H55           -1.9082     1.9807     1.7962 H       
  56 H56            1.1216     3.1157     0.5599 H       
  57 H57           -2.2315     5.8785    -0.2385 H       
  58 H58           -6.1860     8.5114     0.0940 H       
  59 H59           -7.3530     4.4079    -0.3575 H       
  60 H60           -5.0032     3.7161    -0.2047 H       
  61 H61           -9.0571     5.0591    -0.5463 H       
  62 H62          -11.2935     4.7255    -1.5938 H       
  63 H63          -10.2996     8.0795     0.8651 H       
  64 H64          -12.6692     8.7399     0.9224 H       
  65 H65          -13.6626     5.3882    -1.5404 H       
  66 H66          -16.4787     7.3308    -1.3113 H       
  67 H67          -15.2007     6.2205    -1.8611 H       
  68 H68          -16.0902     8.5371     0.8413 H       
  69 H69          -14.3991     8.8207     1.3185 H       
  70 H70           -4.2177     9.3295    -1.3107 H       
  71 H71           -2.4533    11.0127    -1.0061 H       
  72 H72           -0.8543     8.7457     2.2610 H       
  73 H73           -2.6222     7.0655     1.9607 H       
  74 H74          -17.0407     9.6583    -1.0912 H       
  75 H75          -16.9543    11.6274    -2.5671 H       
  76 H76          -14.8853    12.9520    -2.7330 H       
  77 H77          -12.9028    12.3081    -1.4221 H       
  78 H78          -12.9906    10.3417     0.0574 H       
  79 H79          -17.7830     6.8374     0.6761 H       
  80 H80          -18.6594     5.0883     2.1714 H       
  81 H81          -17.5668     2.8834     2.2600 H       
  82 H82          -15.5984     2.4273     0.8528 H       
  83 H83          -14.7248     4.1748    -0.6460 H       
  84 H84            0.4396     9.9811     2.4845 H       
  85 H85            2.2033    11.6704     2.7808 H       
  86 H86            2.2886    13.6375     1.3058 H       
  87 H87            0.6127    13.9259    -0.4722 H       
  88 H88           -1.1548    12.2439    -0.7868 H       
@<TRIPOS>BOND
   1    1    2 1
   2    1    7 2
   3    1    6 1
   4    2   51 1
   5    2   52 1
   6    3    4 2
   7    4    5 1
   8    4    8 am
   9    5    6 1
  10    5   53 1
  11    5   54 1
  12    6   55 1
  13    7   56 1
  14    8    9 1
  15    8   57 1
  16    9   10 ar
  17    9   14 ar
  18   10   11 ar
  19   10   27 1
  20   11   12 ar
  21   11   58 1
  22   12   13 ar
  23   12   15 1
  24   13   14 ar
  25   13   59 1
  26   14   60 1
  27   15   16 am
  28   15   17 2
  29   16   18 1
  30   16   61 1
  31   18   19 ar
  32   18   20 ar
  33   19   23 ar
  34   19   62 1
  35   20   21 ar
  36   20   63 1
  37   21   22 ar
  38   21   64 1
  39   22   23 ar
  40   22   24 1
  41   23   65 1
  42   24   25 1
  43   24   26 1
  44   25   34 1
  45   25   66 1
  46   25   67 1
  47   26   33 1
  48   26   68 1
  49   26   69 1
  50   27   28 ar
  51   27   32 ar
  52   28   29 ar
  53   28   70 1
  54   29   30 ar
  55   29   71 1
  56   30   31 ar
  57   30   45 1
  58   31   32 ar
  59   31   72 1
  60   32   73 1
  61   33   35 ar
  62   33   39 ar
  63   34   40 ar
  64   34   44 ar
  65   35   36 ar
  66   35   74 1
  67   36   37 ar
  68   36   75 1
  69   37   38 ar
  70   37   76 1
  71   38   39 ar
  72   38   77 1
  73   39   78 1
  74   40   41 ar
  75   40   79 1
  76   41   42 ar
  77   41   80 1
  78   42   43 ar
  79   42   81 1
  80   43   44 ar
  81   43   82 1
  82   44   83 1
  83   45   46 ar
  84   45   50 ar
  85   46   47 ar
  86   46   84 1
  87   47   48 ar
  88   47   85 1
  89   48   49 ar
  90   48   86 1
  91   49   50 ar
  92   49   87 1
  93   50   88 1

#	End of record

