#	Name: ASD01917385
#	Creating user name:	WinNT
#	Creation time:	15. 06. 2019 20:09

#	Modifying user name:	WinNT
#	Modification time:	15. 06. 2019 20:09

#	Program:	/corina/corina34_cracker 3.40 0067  02.08.2006

@<TRIPOS>MOLECULE
ASD01917385
  39   39    0    0    0
SMALL
NO_CHARGES


@<TRIPOS>ATOM
   1 C1            -0.0187     1.5258     0.0104 C.3     
   2 C2             0.0021    -0.0041     0.0020 C.3     
   3 C3             0.7182    -0.4975    -1.2568 C.3     
   4 C4             2.1536     0.0321    -1.2676 C.3     
   5 C5             2.1328     1.5619    -1.2592 C.3     
   6 C6             1.4167     2.0553    -0.0004 C.3     
   7 C7            -0.7475     2.0250    -1.2105 C.2     
   8 O8            -1.2036     1.2379    -2.0057 O.2     
   9 O9            -0.8901     3.3440    -1.4144 O.3     
  10 C10            0.7387    -2.0043    -1.2651 C.2     
  11 O11            0.2324    -2.6204    -0.3573 O.2     
  12 O12            1.3193    -2.6621    -2.2809 O.3     
  13 C13           -0.7348     2.0192     1.2692 C.3     
  14 C14           -0.7556     3.5490     1.2776 C.3     
  15 C15           -1.4717     4.0424     2.5364 C.3     
  16 Cl16          -1.4961     5.8452     2.5464 Cl      
  17 C17           -1.6033     3.7526    -2.6114 C.3     
  18 C18            1.3016    -4.1128    -2.2227 C.3     
  19 H19            0.5293    -0.3651     0.8851 H       
  20 H20           -1.0205    -0.3814     0.0098 H       
  21 H21            0.1910    -0.1364    -2.1398 H       
  22 H22            2.6808    -0.3290    -0.3846 H       
  23 H23            2.6638    -0.3194    -2.1644 H       
  24 H24            3.1554     1.9392    -1.2670 H       
  25 H25            1.6057     1.9230    -2.1423 H       
  26 H26            1.4019     3.1452     0.0056 H       
  27 H27            1.9439     1.6943     0.8826 H       
  28 H28           -1.7574     1.6419     1.2770 H       
  29 H29           -0.2076     1.6581     2.1523 H       
  30 H30            0.2670     3.9263     1.2699 H       
  31 H31           -1.2827     3.9101     0.3946 H       
  32 H32           -2.4943     3.6652     2.5442 H       
  33 H33           -0.9445     3.6814     3.4195 H       
  34 H34           -1.6470     4.8409    -2.6545 H       
  35 H35           -1.0827     3.3748    -3.4913 H       
  36 H36           -2.6155     3.3490    -2.5868 H       
  37 H37            1.8194    -4.4467    -1.3236 H       
  38 H38            0.2696    -4.4629    -2.1989 H       
  39 H39            1.8025    -4.5178    -3.1020 H       
@<TRIPOS>BOND
   1    1    2 1
   2    1    6 1
   3    1    7 1
   4    1   13 1
   5    2    3 1
   6    2   19 1
   7    2   20 1
   8    3    4 1
   9    3   10 1
  10    3   21 1
  11    4    5 1
  12    4   22 1
  13    4   23 1
  14    5    6 1
  15    5   24 1
  16    5   25 1
  17    6   26 1
  18    6   27 1
  19    7    8 2
  20    7    9 1
  21    9   17 1
  22   10   11 2
  23   10   12 1
  24   12   18 1
  25   13   14 1
  26   13   28 1
  27   13   29 1
  28   14   15 1
  29   14   30 1
  30   14   31 1
  31   15   16 1
  32   15   32 1
  33   15   33 1
  34   17   34 1
  35   17   35 1
  36   17   36 1
  37   18   37 1
  38   18   38 1
  39   18   39 1

#	End of record

