#	Name: ASD01813937
#	Creating user name:	WinNT
#	Creation time:	15. 06. 2019 19:31

#	Modifying user name:	WinNT
#	Modification time:	15. 06. 2019 19:31

#	Program:	/corina/corina34_cracker 3.40 0067  02.08.2006

@<TRIPOS>MOLECULE
ASD01813937
  57   61    0    0    0
SMALL
NO_CHARGES


@<TRIPOS>ATOM
   1 C1            -1.2217    -0.9464     1.0484 C.2     
   2 C2            -0.4820    -2.1316     0.9381 C.2     
   3 C3             0.8403    -2.0696     0.6080 C.2     
   4 C4             1.4382    -0.8182     0.3842 C.2     
   5 N5             0.6921     0.3232     0.4992 N.am    
   6 C6            -0.6287     0.2489     0.8293 C.2     
   7 C7             2.7969    -0.7518     0.0449 C.2     
   8 C8             3.3875     0.4588    -0.1741 C.2     
   9 C9             2.6171     1.6304    -0.0555 C.2     
  10 C10            1.2533     1.5307     0.2874 C.2     
  11 O11            0.5781     2.5408     0.3920 O.2     
  12 C12            3.2271     2.9420    -0.2850 C.2     
  13 O13            2.4832     4.0613    -0.1697 O.3     
  14 O14            4.4046     3.0219    -0.5796 O.2     
  15 C15            3.6055    -2.0176    -0.0774 C.3     
  16 N16            3.6360    -2.4453    -1.4824 N.3     
  17 C17            4.6026    -3.5336    -1.6805 C.3     
  18 C18            4.5054    -4.0571    -3.0856 C.2     
  19 N19            3.4525    -3.8196    -3.8748 N.am    
  20 C20            2.3174    -3.0008    -3.4588 C.3     
  21 C21            2.2997    -2.8645    -1.9353 C.3     
  22 C22            3.4380    -4.3803    -5.1567 C.ar    
  23 O23            5.4201    -4.7234    -3.5220 O.2     
  24 C24            5.9963    -3.0156    -1.4349 C.ar    
  25 C25            6.9155    -3.7983    -0.7629 C.ar    
  26 C26            8.1962    -3.3221    -0.5373 C.ar    
  27 C27            8.5539    -2.0621    -0.9857 C.ar    
  28 C28            7.6327    -1.2810    -1.6577 C.ar    
  29 C29            6.3564    -1.7596    -1.8872 C.ar    
  30 F30            9.0956    -4.0863     0.1201 F       
  31 C31            3.9674    -3.6761    -6.2303 C.ar    
  32 C32            3.9520    -4.2325    -7.4943 C.ar    
  33 C33            3.4099    -5.4892    -7.6915 C.ar    
  34 C34            2.8820    -6.1930    -6.6246 C.ar    
  35 C35            2.8995    -5.6445    -5.3572 C.ar    
  36 H36           -2.2699    -0.9882     1.3050 H       
  37 H37           -0.9549    -3.0866     1.1133 H       
  38 H38            1.4225    -2.9749     0.5198 H       
  39 H39           -1.2083     1.1559     0.9174 H       
  40 H40            4.4339     0.5170    -0.4351 H       
  41 H41            2.9298     4.9038    -0.3306 H       
  42 H42            4.6226    -1.8338     0.2687 H       
  43 H43            3.1505    -2.7995     0.5307 H       
  44 H44            4.3889    -4.3396    -0.9785 H       
  45 H45            2.4006    -2.0118    -3.9094 H       
  46 H46            1.3916    -3.4708    -3.7906 H       
  47 H47            2.0460    -3.8244    -1.4854 H       
  48 H48            1.5633    -2.1156    -1.6438 H       
  49 H49            6.6352    -4.7810    -0.4132 H       
  50 H50            9.5523    -1.6895    -0.8100 H       
  51 H51            7.9115    -0.2980    -2.0076 H       
  52 H52            5.6374    -1.1487    -2.4127 H       
  53 H53            4.3903    -2.6942    -6.0770 H       
  54 H54            4.3635    -3.6854    -8.3295 H       
  55 H55            3.3984    -5.9219    -8.6810 H       
  56 H56            2.4593    -7.1743    -6.7820 H       
  57 H57            2.4871    -6.1947    -4.5244 H       
@<TRIPOS>BOND
   1    1    2 1
   2    1    6 2
   3    1   36 1
   4    2    3 2
   5    2   37 1
   6    3    4 1
   7    3   38 1
   8    4    5 1
   9    4    7 2
  10    5    6 1
  11    5   10 am
  12    6   39 1
  13    7    8 1
  14    7   15 1
  15    8    9 2
  16    8   40 1
  17    9   10 1
  18    9   12 1
  19   10   11 2
  20   12   13 1
  21   12   14 2
  22   13   41 1
  23   15   16 1
  24   15   42 1
  25   15   43 1
  26   16   17 1
  27   16   21 1
  28   17   18 1
  29   17   24 1
  30   17   44 1
  31   18   19 am
  32   18   23 2
  33   19   20 1
  34   19   22 1
  35   20   21 1
  36   20   45 1
  37   20   46 1
  38   21   47 1
  39   21   48 1
  40   22   31 ar
  41   22   35 ar
  42   24   25 ar
  43   24   29 ar
  44   25   26 ar
  45   25   49 1
  46   26   27 ar
  47   26   30 1
  48   27   28 ar
  49   27   50 1
  50   28   29 ar
  51   28   51 1
  52   29   52 1
  53   31   32 ar
  54   31   53 1
  55   32   33 ar
  56   32   54 1
  57   33   34 ar
  58   33   55 1
  59   34   35 ar
  60   34   56 1
  61   35   57 1

#	End of record

