#	Name: ASD04500006
#	Creating user name:	WinNT
#	Creation time:	15. 06. 2019 20:49

#	Modifying user name:	WinNT
#	Modification time:	15. 06. 2019 20:49

#	Program:	/corina/corina34_cracker 3.40 0067  02.08.2006

@<TRIPOS>MOLECULE
ASD04500006
  99  104    0    0    0
SMALL
NO_CHARGES


@<TRIPOS>ATOM
   1 C1             0.7756     1.9712    -0.1289 C.3     
   2 O2             0.4346     0.6266     0.2142 O.3     
   3 C3             0.5840    -0.3052    -0.8590 C.3     
   4 C4             2.0477    -0.3357    -1.3065 C.3     
   5 C5             2.4762     1.0753    -1.7210 C.3     
   6 C6             2.2470     2.0322    -0.5471 C.3     
   7 C7             0.1658    -1.6990    -0.3864 C.3     
   8 O8            -1.2427    -1.6881    -0.0336 O.3     
   9 C9            -1.7724    -2.8468     0.4052 C.2     
  10 C10           -3.1969    -2.9105     0.7817 C.ar    
  11 O11           -1.0765    -3.8391     0.4907 O.2     
  12 C12           -3.7477    -4.1116     1.2370 C.ar    
  13 C13           -5.0829    -4.1685     1.5891 C.ar    
  14 C14           -5.8793    -3.0305     1.4906 C.ar    
  15 C15           -5.3334    -1.8326     1.0369 C.ar    
  16 C16           -3.9972    -1.7685     0.6893 C.ar    
  17 O17           -5.6196    -5.3371     2.0318 O.3     
  18 O18           -7.1918    -3.0892     1.8375 O.3     
  19 O19           -6.1143    -0.7232     0.9410 O.3     
  20 O20            2.8812    -0.7932    -0.2090 O.3     
  21 C21            2.8008    -2.0980     0.1175 C.2     
  22 C22            3.5153    -2.6069     1.3030 C.ar    
  23 O23            2.1396    -2.8554    -0.5648 O.2     
  24 C24            3.4328    -3.9600     1.6429 C.ar    
  25 C25            4.1034    -4.4341     2.7545 C.ar    
  26 C26            4.8607    -3.5650     3.5356 C.ar    
  27 C27            4.9443    -2.2163     3.1996 C.ar    
  28 C28            4.2808    -1.7379     2.0855 C.ar    
  29 O29            4.0232    -5.7507     3.0860 O.3     
  30 O30            5.5190    -4.0338     4.6279 O.3     
  31 O31            5.6841    -1.3700     3.9652 O.3     
  32 O32            2.1913    -1.2377    -2.4352 O.3     
  33 C33            3.4309    -1.3930    -2.9404 C.2     
  34 C34            3.6349    -2.1969    -4.1598 C.ar    
  35 O35            4.3806    -0.8705    -2.3912 O.2     
  36 C36            4.9199    -2.3588    -4.6848 C.ar    
  37 C37            5.1082    -3.1127    -5.8277 C.ar    
  38 C38            4.0189    -3.7108    -6.4561 C.ar    
  39 C39            2.7374    -3.5509    -5.9354 C.ar    
  40 C40            2.5441    -2.8032    -4.7892 C.ar    
  41 O41            6.3584    -3.2702    -6.3395 O.3     
  42 O42            4.2068    -4.4516    -7.5796 O.3     
  43 O43            1.6756    -4.1358    -6.5521 O.3     
  44 O44            2.5806     3.3860    -0.9524 O.3     
  45 C45            3.0314     4.2182     0.0068 C.2     
  46 C46            3.3897     5.6082    -0.3317 C.ar    
  47 O47            3.1427     3.8234     1.1505 O.2     
  48 C48            3.8573     6.4724     0.6621 C.ar    
  49 C49            4.1923     7.7746     0.3421 C.ar    
  50 C50            4.0642     8.2257    -0.9690 C.ar    
  51 C51            3.5981     7.3669    -1.9611 C.ar    
  52 C52            3.2675     6.0620    -1.6480 C.ar    
  53 O53            4.6471     8.6162     1.3088 O.3     
  54 O54            4.3943     9.5064    -1.2808 O.3     
  55 O55            3.4733     7.8110    -3.2405 O.3     
  56 O56           -0.0596     2.4166    -1.2300 O.3     
  57 C57           -1.3647     2.6208    -0.9642 C.2     
  58 C58           -2.2731     3.0737    -2.0341 C.ar    
  59 O59           -1.7932     2.4318     0.1570 O.2     
  60 C60           -3.6270     3.2859    -1.7598 C.ar    
  61 C61           -4.4760     3.7102    -2.7644 C.ar    
  62 C62           -3.9837     3.9264    -4.0489 C.ar    
  63 C63           -2.6353     3.7153    -4.3251 C.ar    
  64 C64           -1.7805     3.2970    -3.3228 C.ar    
  65 O65           -5.7938     3.9165    -2.4983 O.3     
  66 O66           -4.8207     4.3436    -5.0347 O.3     
  67 O67           -2.1579     3.9265    -5.5810 O.3     
  68 H68            0.6157     2.6182     0.7336 H       
  69 H69           -0.0455    -0.0006    -1.6951 H       
  70 H70            3.5331     1.0718    -1.9876 H       
  71 H71            1.8841     1.3995    -2.5768 H       
  72 H72            2.8768     1.7366     0.2921 H       
  73 H73            0.3343    -2.4197    -1.1866 H       
  74 H74            0.7566    -1.9795     0.4856 H       
  75 H75           -3.1305    -4.9946     1.3133 H       
  76 H76           -3.5742    -0.8390     0.3378 H       
  77 H77           -5.5653    -5.4569     2.9898 H       
  78 H78           -7.3622    -2.8877     2.7678 H       
  79 H79           -6.1309    -0.1834     1.7432 H       
  80 H80            2.8453    -4.6345     1.0376 H       
  81 H81            4.3462    -0.6918     1.8252 H       
  82 H82            4.7087    -6.3004     2.6823 H       
  83 H83            6.4183    -4.3382     4.4446 H       
  84 H84            6.6072    -1.2935     3.6874 H       
  85 H85            5.7651    -1.8948    -4.1981 H       
  86 H86            1.5500    -2.6797    -4.3856 H       
  87 H87            6.8316    -4.0387    -5.9922 H       
  88 H88            4.3725    -5.3890    -7.4096 H       
  89 H89            1.4794    -5.0281    -6.2354 H       
  90 H90            3.9565     6.1232     1.6793 H       
  91 H91            2.9064     5.3962    -2.4179 H       
  92 H92            5.6076     8.6050     1.4201 H       
  93 H93            5.3187     9.6224    -1.5397 H       
  94 H94            4.2661     7.6850    -3.7797 H       
  95 H95           -4.0095     3.1180    -0.7638 H       
  96 H96           -0.7347     3.1338    -3.5375 H       
  97 H97           -6.0012     4.8168    -2.2130 H       
  98 H98           -4.8890     5.3051    -5.1119 H       
  99 H99           -1.8457     4.8284    -5.7365 H       
@<TRIPOS>BOND
   1    1    2 1
   2    1    6 1
   3    1   56 1
   4    1   68 1
   5    2    3 1
   6    3    4 1
   7    3    7 1
   8    3   69 1
   9    4    5 1
  10    4   20 1
  11    4   32 1
  12    5    6 1
  13    5   70 1
  14    5   71 1
  15    6   44 1
  16    6   72 1
  17    7    8 1
  18    7   73 1
  19    7   74 1
  20    8    9 1
  21    9   10 1
  22    9   11 2
  23   10   12 ar
  24   10   16 ar
  25   12   13 ar
  26   12   75 1
  27   13   14 ar
  28   13   17 1
  29   14   15 ar
  30   14   18 1
  31   15   16 ar
  32   15   19 1
  33   16   76 1
  34   17   77 1
  35   18   78 1
  36   19   79 1
  37   20   21 1
  38   21   22 1
  39   21   23 2
  40   22   24 ar
  41   22   28 ar
  42   24   25 ar
  43   24   80 1
  44   25   26 ar
  45   25   29 1
  46   26   27 ar
  47   26   30 1
  48   27   28 ar
  49   27   31 1
  50   28   81 1
  51   29   82 1
  52   30   83 1
  53   31   84 1
  54   32   33 1
  55   33   34 1
  56   33   35 2
  57   34   36 ar
  58   34   40 ar
  59   36   37 ar
  60   36   85 1
  61   37   38 ar
  62   37   41 1
  63   38   39 ar
  64   38   42 1
  65   39   40 ar
  66   39   43 1
  67   40   86 1
  68   41   87 1
  69   42   88 1
  70   43   89 1
  71   44   45 1
  72   45   46 1
  73   45   47 2
  74   46   48 ar
  75   46   52 ar
  76   48   49 ar
  77   48   90 1
  78   49   50 ar
  79   49   53 1
  80   50   51 ar
  81   50   54 1
  82   51   52 ar
  83   51   55 1
  84   52   91 1
  85   53   92 1
  86   54   93 1
  87   55   94 1
  88   56   57 1
  89   57   58 1
  90   57   59 2
  91   58   60 ar
  92   58   64 ar
  93   60   61 ar
  94   60   95 1
  95   61   62 ar
  96   61   65 1
  97   62   63 ar
  98   62   66 1
  99   63   64 ar
 100   63   67 1
 101   64   96 1
 102   65   97 1
 103   66   98 1
 104   67   99 1

#	End of record

