#	Name: ASD03081182
#	Creating user name:	WinNT
#	Creation time:	15. 06. 2019 20:27

#	Modifying user name:	WinNT
#	Modification time:	15. 06. 2019 20:27

#	Program:	/corina/corina34_cracker 3.40 0067  02.08.2006

@<TRIPOS>MOLECULE
ASD03081182
  51   53    0    0    0
SMALL
NO_CHARGES


@<TRIPOS>ATOM
   1 C1            -0.0187     1.5277     0.0104 C.3     
   2 C2             0.0021    -0.0041     0.0020 C.3     
   3 N3             0.8039    -0.4598    -1.1417 N.am    
   4 C4             2.1714     0.0552    -1.2952 C.3     
   5 C5             2.1272     1.5863    -1.2726 C.3     
   6 C6             1.4177     2.0541    -0.0004 C.3     
   7 C7             1.4005     3.5843     0.0410 C.3     
   8 C8             0.7453     4.0471     1.3444 C.3     
   9 N9             1.4989     3.5162     2.4876 N.3     
  10 C10            1.4883     2.0478     2.4950 C.3     
  11 C11            2.1652     1.5248     1.2259 C.3     
  12 C12            0.9822     4.0528     3.7537 C.3     
  13 C13            0.2949    -1.3336    -2.0327 C.2     
  14 O14           -0.8352    -1.7516    -1.8946 O.2     
  15 C15            1.1301    -1.7914    -3.2006 C.3     
  16 C16            0.3344    -2.7585    -4.0388 C.ar    
  17 C17           -0.4475    -2.2895    -5.0786 C.ar    
  18 C18           -1.1785    -3.1753    -5.8490 C.ar    
  19 C19           -1.1261    -4.5368    -5.5767 C.ar    
  20 C20           -0.3411    -5.0026    -4.5335 C.ar    
  21 C21            0.3918    -4.1132    -3.7704 C.ar    
  22 O22           -1.8438    -5.4104    -6.3317 O.3     
  23 C23           -1.7418    -6.7953    -5.9944 C.3     
  24 F24           -1.9427    -2.7174    -6.8646 F       
  25 H25           -0.5452     1.8891    -0.8728 H       
  26 H26           -0.5282     1.8796     0.9075 H       
  27 H27            0.4464    -0.3686     0.9282 H       
  28 H28           -1.0157    -0.3828    -0.0912 H       
  29 H29            2.7916    -0.3046    -0.4742 H       
  30 H30            2.5854    -0.2844    -2.2446 H       
  31 H31            3.1435     1.9798    -1.2879 H       
  32 H32            1.5838     1.9474    -2.1458 H       
  33 H33            2.4222     3.9612    -0.0065 H       
  34 H34            0.8318     3.9650    -0.8073 H       
  35 H35            0.7449     5.1364     1.3840 H       
  36 H36           -0.2809     3.6818     1.3847 H       
  37 H37            2.0276     1.6852     3.3701 H       
  38 H38            0.4585     1.6922     2.5303 H       
  39 H39            2.1421     0.4350     1.2238 H       
  40 H40            3.1995     1.8674     1.1976 H       
  41 H41           -0.0655     3.7739     3.8659 H       
  42 H42            1.5581     3.6435     4.5837 H       
  43 H43            1.0708     5.1392     3.7509 H       
  44 H44            1.4099    -0.9299    -3.8070 H       
  45 H45            2.0299    -2.2844    -2.8327 H       
  46 H46           -0.4875    -1.2309    -5.2889 H       
  47 H47           -0.2988    -6.0604    -4.3198 H       
  48 H48            1.0068    -4.4768    -2.9604 H       
  49 H49           -0.7037    -7.1155    -6.0834 H       
  50 H50           -2.0819    -6.9457    -4.9698 H       
  51 H51           -2.3621    -7.3811    -6.6727 H       
@<TRIPOS>BOND
   1    1    2 1
   2    1    6 1
   3    1   25 1
   4    1   26 1
   5    2    3 1
   6    2   27 1
   7    2   28 1
   8    3    4 1
   9    3   13 am
  10    4    5 1
  11    4   29 1
  12    4   30 1
  13    5    6 1
  14    5   31 1
  15    5   32 1
  16    6    7 1
  17    6   11 1
  18    7    8 1
  19    7   33 1
  20    7   34 1
  21    8    9 1
  22    8   35 1
  23    8   36 1
  24    9   10 1
  25    9   12 1
  26   10   11 1
  27   10   37 1
  28   10   38 1
  29   11   39 1
  30   11   40 1
  31   12   41 1
  32   12   42 1
  33   12   43 1
  34   13   14 2
  35   13   15 1
  36   15   16 1
  37   15   44 1
  38   15   45 1
  39   16   17 ar
  40   16   21 ar
  41   17   18 ar
  42   17   46 1
  43   18   19 ar
  44   18   24 1
  45   19   20 ar
  46   19   22 1
  47   20   21 ar
  48   20   47 1
  49   21   48 1
  50   22   23 1
  51   23   49 1
  52   23   50 1
  53   23   51 1

#	End of record

