#	Name: ASD03240989
#	Creating user name:	WinNT
#	Creation time:	15. 06. 2019 20:35

#	Modifying user name:	WinNT
#	Modification time:	15. 06. 2019 20:35

#	Program:	/corina/corina34_cracker 3.40 0067  02.08.2006

@<TRIPOS>MOLECULE
ASD03240989
  59   64    0    0    0
SMALL
NO_CHARGES


@<TRIPOS>ATOM
   1 C1             0.0021    -0.0041     0.0020 C.1     
   2 C2            -0.0173     1.4278     0.0099 C.ar    
   3 C3             1.1833     2.1436     0.0023 C.ar    
   4 C4             1.1634     3.5197     0.0099 C.ar    
   5 C5            -0.0549     4.2005     0.0257 C.ar    
   6 C6            -1.2544     3.4867     0.0338 C.ar    
   7 C7            -1.2370     2.1107     0.0194 C.ar    
   8 N8             0.0175    -1.1399    -0.0042 N.1     
   9 N9            -0.2216     9.8079    -0.0502 N.pl3   
  10 C10            0.5310    10.5204     0.8439 C.2     
  11 N11            1.3191     9.9178     1.7518 N.2     
  12 C12            1.4128     8.6157     1.8338 C.2     
  13 C13            0.6373     7.7885     0.9117 C.ar    
  14 C14            0.6957     6.3916     0.9503 C.ar    
  15 C15           -0.0750     5.6816     0.0344 C.ar    
  16 C16           -0.8744     6.3899    -0.8850 C.ar    
  17 N17           -0.9035     7.7139    -0.8910 N.ar    
  18 C18           -0.1875     8.4269    -0.0389 C.ar    
  19 C19            0.2893    11.8635     0.5893 C.2     
  20 C20           -0.6135    11.9384    -0.4641 C.2     
  21 N21           -0.9159    10.7225    -0.8513 N.2     
  22 C22           -1.1524    13.2098    -1.0676 C.3     
  23 C23           -1.6963     5.6402    -1.8623 C.ar    
  24 C24           -2.9452     6.1280    -2.2473 C.ar    
  25 C25           -3.7064     5.4249    -3.1583 C.ar    
  26 C26           -3.2333     4.2383    -3.6898 C.ar    
  27 C27           -1.9956     3.7491    -3.3116 C.ar    
  28 C28           -1.2224     4.4462    -2.4061 C.ar    
  29 C29           -4.0697     3.4754    -4.6844 C.3     
  30 C30           -3.2398     2.6680    -5.6964 C.3     
  31 C31           -4.2864     1.5515    -5.5451 C.3     
  32 C32           -4.5849     2.1281    -4.1510 C.3     
  33 C33           -5.4576     1.6728    -6.5221 C.3     
  34 O34           -3.7226     0.2389    -5.5129 O.3     
  35 N35           -5.1144     4.3007    -5.3053 N.3     
  36 H36            2.1261     1.6170    -0.0092 H       
  37 H37            2.0909     4.0729     0.0040 H       
  38 H38           -2.1965     4.0146     0.0467 H       
  39 H39           -2.1652     1.5586     0.0208 H       
  40 H40            2.0541     8.1583     2.5727 H       
  41 H41            1.3203     5.8799     1.6676 H       
  42 H42            0.7249    12.7000     1.1155 H       
  43 H43           -0.5016    13.5301    -1.8812 H       
  44 H44           -2.1560    13.0317    -1.4537 H       
  45 H45           -1.1893    13.9871    -0.3043 H       
  46 H46           -3.3158     7.0540    -1.8329 H       
  47 H47           -4.6736     5.8013    -3.4569 H       
  48 H48           -1.6321     2.8219    -3.7294 H       
  49 H49           -0.2544     4.0658    -2.1153 H       
  50 H50           -3.2144     3.1106    -6.6922 H       
  51 H51           -2.2512     2.3924    -5.3293 H       
  52 H52           -3.9640     1.7049    -3.3614 H       
  53 H53           -5.6454     2.1349    -3.8992 H       
  54 H54           -5.0833     1.6313    -7.5449 H       
  55 H55           -6.1552     0.8517    -6.3568 H       
  56 H56           -5.9687     2.6219    -6.3605 H       
  57 H57           -4.3760    -0.4676    -5.4178 H       
  58 H58           -5.6335     4.8122    -4.6075 H       
  59 H59           -4.7207     4.9252    -5.9931 H       
@<TRIPOS>BOND
   1    1    2 1
   2    1    8 3
   3    2    3 ar
   4    2    7 ar
   5    3    4 ar
   6    3   36 1
   7    4    5 ar
   8    4   37 1
   9    5    6 ar
  10    5   15 1
  11    6    7 ar
  12    6   38 1
  13    7   39 1
  14    9   10 1
  15    9   18 1
  16    9   21 1
  17   10   11 1
  18   10   19 2
  19   11   12 2
  20   12   13 1
  21   12   40 1
  22   13   14 ar
  23   13   18 ar
  24   14   15 ar
  25   14   41 1
  26   15   16 ar
  27   16   17 ar
  28   16   23 1
  29   17   18 ar
  30   19   20 1
  31   19   42 1
  32   20   21 2
  33   20   22 1
  34   22   43 1
  35   22   44 1
  36   22   45 1
  37   23   24 ar
  38   23   28 ar
  39   24   25 ar
  40   24   46 1
  41   25   26 ar
  42   25   47 1
  43   26   27 ar
  44   26   29 1
  45   27   28 ar
  46   27   48 1
  47   28   49 1
  48   29   30 1
  49   29   32 1
  50   29   35 1
  51   30   31 1
  52   30   50 1
  53   30   51 1
  54   31   32 1
  55   31   33 1
  56   31   34 1
  57   32   52 1
  58   32   53 1
  59   33   54 1
  60   33   55 1
  61   33   56 1
  62   34   57 1
  63   35   58 1
  64   35   59 1

#	End of record

