#	Name: ASD01209358
#	Creating user name:	WinNT
#	Creation time:	15. 06. 2019 19:11

#	Modifying user name:	WinNT
#	Modification time:	15. 06. 2019 19:11

#	Program:	/corina/corina34_cracker 3.40 0067  02.08.2006

@<TRIPOS>MOLECULE
ASD01209358
  60   62    0    0    0
SMALL
NO_CHARGES


@<TRIPOS>ATOM
   1 C1             3.7150     2.6834     4.6294 C.2     
   2 C2             2.8546     1.6153     4.0047 C.3     
   3 O3             4.9016     2.7121     4.4034 O.2     
   4 O4             3.1621     3.6060     5.4324 O.3     
   5 S5             4.8659    -1.2682     2.1167 S.3     
   6 C6             5.1697     0.3031     1.5152 C.2     
   7 N7             4.4804     1.1761     2.1806 N.2     
   8 C8             3.7108     0.7170     3.1496 C.2     
   9 C9             3.7518    -0.6070     3.3106 C.2     
  10 N10            6.0309     0.6010     0.4655 N.am    
  11 C11            6.7003    -0.3884    -0.1585 C.2     
  12 O12            6.5513    -1.5387     0.1958 O.2     
  13 C13            7.6340    -0.0654    -1.2965 C.3     
  14 S14            8.3777    -1.5972    -1.9218 S.3     
  15 N15           10.8772    -1.1723    -2.8482 N.am    
  16 C16            9.4721    -1.0094    -3.2438 C.3     
  17 C17            9.2921    -1.8542    -4.4836 C.2     
  18 C18           10.4667    -2.4198    -4.7428 C.2     
  19 C19           11.4506    -2.0041    -3.7380 C.2     
  20 O20           12.6138    -2.3584    -3.7126 O.2     
  21 C21           10.7455    -3.3485    -5.8964 C.3     
  22 C22            8.0214    -2.0238    -5.2758 C.3     
  23 C23           11.5347    -0.5413    -1.7012 C.3     
  24 C24           11.4024    -1.4328    -0.4934 C.ar    
  25 C25           12.3691    -2.3855    -0.2296 C.ar    
  26 C26           12.2501    -3.2039     0.8770 C.ar    
  27 C27           11.1596    -3.0693     1.7239 C.ar    
  28 C28           10.1910    -2.1126     1.4570 C.ar    
  29 C29           10.3175    -1.2928     0.3522 C.ar    
  30 O30           11.0400    -3.8735     2.8128 O.3     
  31 C31            9.8914    -3.6786     3.6403 C.3     
  32 C32            4.0511     4.6044     5.9991 C.3     
  33 C33            3.2466     5.5625     6.8798 C.3     
  34 H34            2.3803     1.0259     4.7893 H       
  35 H35            2.0875     2.0820     3.3868 H       
  36 H36            3.1983    -1.1743     4.0443 H       
  37 H37            6.1501     1.5210     0.1822 H       
  38 H38            7.0766     0.4210    -2.0969 H       
  39 H39            8.4199     0.6023    -0.9433 H       
  40 H40            9.2632     0.0369    -3.4668 H       
  41 H41           11.0709    -2.7681    -6.7597 H       
  42 H42           11.5292    -4.0520    -5.6152 H       
  43 H43            9.8381    -3.8972    -6.1486 H       
  44 H44            7.9553    -1.2387    -6.0290 H       
  45 H45            8.0257    -2.9976    -5.7655 H       
  46 H46            7.1640    -1.9578    -4.6060 H       
  47 H47           12.5902    -0.3886    -1.9262 H       
  48 H48           11.0641     0.4203    -1.4964 H       
  49 H49           13.2177    -2.4902    -0.8893 H       
  50 H50           13.0053    -3.9482     1.0824 H       
  51 H51            9.3411    -2.0058     2.1147 H       
  52 H52            9.5662    -0.5447     0.1466 H       
  53 H53            9.8910    -2.6596     4.0273 H       
  54 H54            8.9882    -3.8446     3.0531 H       
  55 H55            9.9188    -4.3830     4.4717 H       
  56 H56            4.8143     4.1115     6.6013 H       
  57 H57            4.5284     5.1643     5.1949 H       
  58 H58            3.9139     6.3120     7.3052 H       
  59 H59            2.4834     6.0555     6.2776 H       
  60 H60            2.7692     5.0027     7.6841 H       
@<TRIPOS>BOND
   1    1    2 1
   2    1    3 2
   3    1    4 1
   4    2    8 1
   5    2   34 1
   6    2   35 1
   7    4   32 1
   8    5    6 1
   9    5    9 1
  10    6    7 2
  11    6   10 1
  12    7    8 1
  13    8    9 2
  14    9   36 1
  15   10   11 am
  16   10   37 1
  17   11   12 2
  18   11   13 1
  19   13   14 1
  20   13   38 1
  21   13   39 1
  22   14   16 1
  23   15   16 1
  24   15   19 am
  25   15   23 1
  26   16   17 1
  27   16   40 1
  28   17   18 2
  29   17   22 1
  30   18   19 1
  31   18   21 1
  32   19   20 2
  33   21   41 1
  34   21   42 1
  35   21   43 1
  36   22   44 1
  37   22   45 1
  38   22   46 1
  39   23   24 1
  40   23   47 1
  41   23   48 1
  42   24   25 ar
  43   24   29 ar
  44   25   26 ar
  45   25   49 1
  46   26   27 ar
  47   26   50 1
  48   27   28 ar
  49   27   30 1
  50   28   29 ar
  51   28   51 1
  52   29   52 1
  53   30   31 1
  54   31   53 1
  55   31   54 1
  56   31   55 1
  57   32   33 1
  58   32   56 1
  59   32   57 1
  60   33   58 1
  61   33   59 1
  62   33   60 1

#	End of record

