#	Name: ASD01813396
#	Creating user name:	WinNT
#	Creation time:	15. 06. 2019 19:30

#	Modifying user name:	WinNT
#	Modification time:	15. 06. 2019 19:30

#	Program:	/corina/corina34_cracker 3.40 0067  02.08.2006

@<TRIPOS>MOLECULE
ASD01813396
  46   49    0    0    0
SMALL
NO_CHARGES


@<TRIPOS>ATOM
   1 C1            -0.0169     1.3972     0.0097 C.2     
   2 C2             0.0021    -0.0041     0.0020 C.2     
   3 C3             1.1986    -0.6593    -0.0129 C.2     
   4 C4             2.3918     0.0821    -0.0204 C.2     
   5 N5             2.3437     1.4497    -0.0122 N.am    
   6 C6             1.1421     2.0937     0.0024 C.2     
   7 C7             3.6227    -0.5889    -0.0356 C.2     
   8 C8             4.7877     0.1218    -0.0425 C.2     
   9 C9             4.7345     1.5280    -0.0346 C.2     
  10 C10            3.4812     2.1736    -0.0189 C.2     
  11 O11            3.4258     3.3917    -0.0123 O.2     
  12 C12            5.9703     2.3140    -0.0413 C.2     
  13 O13            5.9124     3.6618    -0.0337 O.3     
  14 O14            7.0487     1.7516    -0.0537 O.2     
  15 C15            3.6593    -2.0954    -0.0439 C.3     
  16 C16            3.7837    -2.5946    -1.4848 C.3     
  17 N17            3.8194    -4.0631    -1.4929 N.3     
  18 C18            2.5354    -4.6253    -1.0367 C.3     
  19 C19            2.5985    -6.1226    -1.2018 C.2     
  20 N20            3.5418    -6.7539    -1.9702 N.pl3   
  21 C21            4.5841    -6.0521    -2.7187 C.3     
  22 C22            4.1845    -4.5737    -2.8216 C.3     
  23 N23            1.8392    -7.0391    -0.6941 N.2     
  24 N24            2.2378    -8.2018    -1.0840 N.2     
  25 C25            3.2838    -8.0767    -1.8705 C.2     
  26 O26            3.9709    -9.0812    -2.4669 O.3     
  27 C27            3.5177   -10.4137    -2.2194 C.3     
  28 H28           -0.9605     1.9226     0.0170 H       
  29 H29           -0.9233    -0.5609     0.0082 H       
  30 H30            1.2282    -1.7389    -0.0187 H       
  31 H31            1.1156     3.1733     0.0087 H       
  32 H32            5.7393    -0.3889    -0.0536 H       
  33 H33            6.7544     4.1373    -0.0385 H       
  34 H34            4.5153    -2.4412     0.5356 H       
  35 H35            2.7412    -2.4836     0.3971 H       
  36 H36            2.9277    -2.2488    -2.0643 H       
  37 H37            4.7018    -2.2064    -1.9259 H       
  38 H38            2.3763    -4.3766     0.0126 H       
  39 H39            1.7216    -4.2220    -1.6393 H       
  40 H40            5.5360    -6.1405    -2.1952 H       
  41 H41            4.6714    -6.4800    -3.7174 H       
  42 H42            3.3328    -4.4746    -3.4946 H       
  43 H43            5.0232    -3.9981    -3.2131 H       
  44 H44            3.5651   -10.6208    -1.1503 H       
  45 H45            2.4889   -10.5174    -2.5643 H       
  46 H46            4.1533   -11.1190    -2.7547 H       
@<TRIPOS>BOND
   1    1    2 1
   2    1    6 2
   3    1   28 1
   4    2    3 2
   5    2   29 1
   6    3    4 1
   7    3   30 1
   8    4    5 1
   9    4    7 2
  10    5    6 1
  11    5   10 am
  12    6   31 1
  13    7    8 1
  14    7   15 1
  15    8    9 2
  16    8   32 1
  17    9   10 1
  18    9   12 1
  19   10   11 2
  20   12   13 1
  21   12   14 2
  22   13   33 1
  23   15   16 1
  24   15   34 1
  25   15   35 1
  26   16   17 1
  27   16   36 1
  28   16   37 1
  29   17   18 1
  30   17   22 1
  31   18   19 1
  32   18   38 1
  33   18   39 1
  34   19   20 1
  35   19   23 2
  36   20   21 1
  37   20   25 1
  38   21   22 1
  39   21   40 1
  40   21   41 1
  41   22   42 1
  42   22   43 1
  43   23   24 1
  44   24   25 2
  45   25   26 1
  46   26   27 1
  47   27   44 1
  48   27   45 1
  49   27   46 1

#	End of record

