#	Name: ASD07301248
#	Creating user name:	WinNT
#	Creation time:	15. 06. 2019 21:11

#	Modifying user name:	WinNT
#	Modification time:	15. 06. 2019 21:11

#	Program:	/corina/corina34_cracker 3.40 0067  02.08.2006

@<TRIPOS>MOLECULE
ASD07301248
  31   31    0    0    0
SMALL
NO_CHARGES


@<TRIPOS>ATOM
   1 C1            -1.3940     0.5437     0.1921 C.3     
   2 C2            -0.0025    -0.0037     0.0051 C.2     
   3 C3             0.6923    -0.6358     1.1277 C.2     
   4 C4             0.6405    -2.0890     1.2959 C.2     
   5 C5             1.3559    -2.7398     2.4516 C.3     
   6 O6             0.5421     0.0795    -1.0762 O.2     
   7 O7             0.0215    -2.7697     0.5045 O.2     
   8 N8             1.3675     0.1065     1.9908 N.2     
   9 N9             1.5002     1.3733     1.7864 N.pl3   
  10 C10            2.2989     2.1371     2.6374 C.ar    
  11 C11            2.4426     3.5015     2.4184 C.ar    
  12 C12            3.2366     4.2564     3.2665 C.ar    
  13 C13            3.8862     3.6487     4.3323 C.ar    
  14 C14            3.7424     2.2914     4.5491 C.ar    
  15 C15            2.9478     1.5354     3.7096 C.ar    
  16 O16            3.3797     5.5912     3.0549 O.3     
  17 C17            4.2132     6.3072     3.9685 C.3     
  18 F18            3.6982     6.1850     5.2635 F       
  19 F19            5.5083     5.7795     3.9300 F       
  20 H20           -1.3978     1.2509     1.0216 H       
  21 H21           -1.7104     1.0509    -0.7193 H       
  22 H22           -2.0803    -0.2748     0.4094 H       
  23 H23            0.9587    -2.3518     3.3896 H       
  24 H24            1.2047    -3.8185     2.4116 H       
  25 H25            2.4216    -2.5197     2.3897 H       
  26 H26            1.0446     1.7947     1.0409 H       
  27 H27            1.9368     3.9726     1.5885 H       
  28 H28            4.5053     4.2375     4.9930 H       
  29 H29            4.2491     1.8217     5.3792 H       
  30 H30            2.8339     0.4756     3.8837 H       
  31 H31            4.2412     7.3597     3.6864 H       
@<TRIPOS>BOND
   1    1    2 1
   2    1   20 1
   3    1   21 1
   4    1   22 1
   5    2    3 1
   6    2    6 2
   7    3    4 1
   8    3    8 2
   9    4    5 1
  10    4    7 2
  11    5   23 1
  12    5   24 1
  13    5   25 1
  14    8    9 1
  15    9   10 1
  16    9   26 1
  17   10   11 ar
  18   10   15 ar
  19   11   12 ar
  20   11   27 1
  21   12   13 ar
  22   12   16 1
  23   13   14 ar
  24   13   28 1
  25   14   15 ar
  26   14   29 1
  27   15   30 1
  28   16   17 1
  29   17   18 1
  30   17   19 1
  31   17   31 1

#	End of record

