#	Name: ASD01914329
#	Creating user name:	WinNT
#	Creation time:	15. 06. 2019 20:03

#	Modifying user name:	WinNT
#	Modification time:	15. 06. 2019 20:03

#	Program:	/corina/corina34_cracker 3.40 0067  02.08.2006

@<TRIPOS>MOLECULE
ASD01914329
  47   50    0    0    0
SMALL
NO_CHARGES


@<TRIPOS>ATOM
   1 C1            -2.6541     1.8837    -3.0391 C.2     
   2 N2            -2.0552     0.7476    -2.7801 N.2     
   3 N3            -2.8870    -0.0032    -1.9451 N.pl3   
   4 C4            -4.0077     0.7209    -1.7200 C.2     
   5 C5            -3.8867     1.8916    -2.3739 C.2     
   6 C6            -5.1641     0.2467    -0.8719 C.3     
   7 N7            -4.7133    -0.9692    -0.1691 N.am    
   8 C8            -4.9991    -1.1645     1.1335 C.2     
   9 O9            -4.7043    -2.2151     1.6695 O.2     
  10 C10           -5.6703    -0.1020     1.9098 C.ar    
  11 C11           -6.7707    -0.4097     2.7128 C.ar    
  12 C12           -2.1078     2.9938    -3.8995 C.3     
  13 O13           -3.0480     4.0690    -3.9435 O.3     
  14 C14           -2.7067     5.1572    -4.6826 C.ar    
  15 C15           -3.5726     6.2377    -4.7692 C.ar    
  16 C16           -3.2234     7.3426    -5.5212 C.ar    
  17 C17           -2.0120     7.3723    -6.1872 C.ar    
  18 C18           -1.1475     6.2965    -6.1028 C.ar    
  19 C19           -1.4894     5.1918    -5.3471 C.ar    
  20 C20           -2.6221    -1.3335    -1.3901 C.3     
  21 C21           -3.9430    -1.9623    -0.9331 C.3     
  22 C22           -5.2033     1.2126     1.8478 C.ar    
  23 C23           -5.8334     2.2002     2.5741 C.ar    
  24 C24           -6.9288     1.8902     3.3657 C.ar    
  25 C25           -7.3934     0.5856     3.4350 C.ar    
  26 F26           -7.5422     2.8617     4.0764 F       
  27 C27           -3.6520    -3.1749    -0.0466 C.3     
  28 H28           -4.6131     2.6907    -2.3887 H       
  29 H29           -5.4345     1.0158    -0.1484 H       
  30 H30           -6.0196     0.0141    -1.5061 H       
  31 H31           -7.1334    -1.4255     2.7675 H       
  32 H32           -1.1675     3.3503    -3.4789 H       
  33 H33           -1.9358     2.6200    -4.9089 H       
  34 H34           -4.5190     6.2148    -4.2495 H       
  35 H35           -3.8972     8.1839    -5.5892 H       
  36 H36           -1.7408     8.2371    -6.7746 H       
  37 H37           -0.2022     6.3218    -6.6245 H       
  38 H38           -0.8138     4.3518    -5.2815 H       
  39 H39           -2.1651    -1.9623    -2.1542 H       
  40 H40           -1.9469    -1.2449    -0.5389 H       
  41 H41           -4.5171    -2.2770    -1.8046 H       
  42 H42           -4.3497     1.4550     1.2321 H       
  43 H43           -5.4730     3.2172     2.5269 H       
  44 H44           -8.2472     0.3496     4.0528 H       
  45 H45           -3.0798    -2.8584     0.8255 H       
  46 H46           -4.5917    -3.6216     0.2780 H       
  47 H47           -3.0770    -3.9085    -0.6117 H       
@<TRIPOS>BOND
   1    1    2 2
   2    1   12 1
   3    1    5 1
   4    2    3 1
   5    3    4 1
   6    3   20 1
   7    4    5 2
   8    4    6 1
   9    5   28 1
  10    6    7 1
  11    6   29 1
  12    6   30 1
  13    7    8 am
  14    7   21 1
  15    8    9 2
  16    8   10 1
  17   10   11 ar
  18   10   22 ar
  19   11   25 ar
  20   11   31 1
  21   12   13 1
  22   12   32 1
  23   12   33 1
  24   13   14 1
  25   14   15 ar
  26   14   19 ar
  27   15   16 ar
  28   15   34 1
  29   16   17 ar
  30   16   35 1
  31   17   18 ar
  32   17   36 1
  33   18   19 ar
  34   18   37 1
  35   19   38 1
  36   20   21 1
  37   20   39 1
  38   20   40 1
  39   21   27 1
  40   21   41 1
  41   22   23 ar
  42   22   42 1
  43   23   24 ar
  44   23   43 1
  45   24   25 ar
  46   24   26 1
  47   25   44 1
  48   27   45 1
  49   27   46 1
  50   27   47 1

#	End of record

