#	Name: ASD03730386
#	Creating user name:	WinNT
#	Creation time:	15. 06. 2019 20:44

#	Modifying user name:	WinNT
#	Modification time:	15. 06. 2019 20:44

#	Program:	/corina/corina34_cracker 3.40 0067  02.08.2006

@<TRIPOS>MOLECULE
ASD03730386
  58   63    0    0    0
SMALL
NO_CHARGES


@<TRIPOS>ATOM
   1 C1            -0.0180     1.4742     0.0101 C.2     
   2 C2             0.0021    -0.0041     0.0020 C.ar    
   3 C3             1.2184    -0.6885    -0.0133 C.ar    
   4 C4             1.2301    -2.0680    -0.0203 C.ar    
   5 C5             0.0396    -2.7730    -0.0127 C.ar    
   6 C6            -1.1695    -2.1007     0.0024 C.ar    
   7 C7            -1.1952    -0.7214     0.0154 C.ar    
   8 O8             1.0263     2.0963     0.0035 O.2     
   9 N9            -1.1942     2.1322     0.0193 N.am    
  10 C10           -1.2141     3.5970     0.0274 C.3     
  11 C11           -2.6633     4.0874     0.0369 C.3     
  12 C12           -2.6841     5.6172     0.0453 C.3     
  13 C13            0.0601    -4.2798    -0.0215 C.3     
  14 O14           -2.0563    -1.5348     6.2775 O.3     
  15 C15           -2.2837    -1.6203     7.6967 C.3     
  16 O16           -2.7818    -2.9582     7.8836 O.3     
  17 C17           -2.2564    -3.6908     6.8579 C.ar    
  18 C18           -1.8113    -2.8150     5.8702 C.ar    
  19 C19           -2.1186    -5.0563     6.6848 C.ar    
  20 C20           -1.5385    -5.5652     5.5267 C.ar    
  21 C21           -1.1053    -4.6808     4.5435 C.ar    
  22 C22           -1.2356    -3.3185     4.7159 C.ar    
  23 O23           -1.2955    -6.8588     5.1692 O.3     
  24 C24           -0.5594    -5.5216     3.4206 C.3     
  25 C25           -1.0841    -6.9267     3.7458 C.3     
  26 N26            0.0802    -4.7759     1.3568 N.am    
  27 C27           -1.0278    -5.0465     2.0754 C.2     
  28 C28            0.9387    -5.4848     3.3560 C.ar    
  29 C29            1.9375    -5.7964     4.2513 C.ar    
  30 C30            3.2644    -5.6548     3.8860 C.ar    
  31 C31            3.5850    -5.1990     2.6202 C.ar    
  32 C32            2.5881    -4.8847     1.7202 C.ar    
  33 C33            1.2497    -5.0246     2.0792 C.ar    
  34 O34           -2.1775    -4.9294     1.7074 O.2     
  35 H35            2.1484    -0.1393    -0.0199 H       
  36 H36            2.1706    -2.5988    -0.0321 H       
  37 H37           -2.0953    -2.6569     0.0083 H       
  38 H38           -2.1396    -0.1978     0.0318 H       
  39 H39           -2.0276     1.6358     0.0206 H       
  40 H40           -0.7010     3.9625     0.9169 H       
  41 H41           -0.7094     3.9721    -0.8630 H       
  42 H42           -3.1764     3.7219    -0.8527 H       
  43 H43           -3.1680     3.7122     0.9273 H       
  44 H44           -2.1795     5.9923    -0.8450 H       
  45 H45           -3.7166     5.9665     0.0521 H       
  46 H46           -2.1710     5.9826     0.9349 H       
  47 H47           -0.8299    -4.6523    -0.5288 H       
  48 H48            0.9498    -4.6281    -0.5460 H       
  49 H49           -1.3511    -1.4791     8.2431 H       
  50 H50           -3.0272    -0.8875     8.0102 H       
  51 H51           -2.4636    -5.7319     7.4534 H       
  52 H52           -0.8881    -2.6428     3.9484 H       
  53 H53           -0.3397    -7.6843     3.5007 H       
  54 H54           -2.0214    -7.1203     3.2241 H       
  55 H55            1.6849    -6.1520     5.2393 H       
  56 H56            4.0481    -5.9000     4.5876 H       
  57 H57            4.6208    -5.0884     2.3351 H       
  58 H58            2.8463    -4.5288     0.7338 H       
@<TRIPOS>BOND
   1    1    2 1
   2    1    8 2
   3    1    9 am
   4    2    3 ar
   5    2    7 ar
   6    3    4 ar
   7    3   35 1
   8    4    5 ar
   9    4   36 1
  10    5    6 ar
  11    5   13 1
  12    6    7 ar
  13    6   37 1
  14    7   38 1
  15    9   10 1
  16    9   39 1
  17   10   11 1
  18   10   40 1
  19   10   41 1
  20   11   12 1
  21   11   42 1
  22   11   43 1
  23   12   44 1
  24   12   45 1
  25   12   46 1
  26   13   26 1
  27   13   47 1
  28   13   48 1
  29   14   15 1
  30   14   18 1
  31   15   16 1
  32   15   49 1
  33   15   50 1
  34   16   17 1
  35   17   18 ar
  36   17   19 ar
  37   18   22 ar
  38   19   20 ar
  39   19   51 1
  40   20   21 ar
  41   20   23 1
  42   21   22 ar
  43   21   24 1
  44   22   52 1
  45   23   25 1
  46   24   25 1
  47   24   27 1
  48   24   28 1
  49   25   53 1
  50   25   54 1
  51   26   27 am
  52   26   33 1
  53   27   34 2
  54   28   29 ar
  55   28   33 ar
  56   29   30 ar
  57   29   55 1
  58   30   31 ar
  59   30   56 1
  60   31   32 ar
  61   31   57 1
  62   32   33 ar
  63   32   58 1

#	End of record

