#	Name: ASD00069145
#	Creating user name:	WinNT
#	Creation time:	15. 06. 2019 18:29

#	Modifying user name:	WinNT
#	Modification time:	15. 06. 2019 18:29

#	Program:	/corina/corina34_cracker 3.40 0067  02.08.2006

@<TRIPOS>MOLECULE
ASD00069145
  60   63    0    0    0
SMALL
NO_CHARGES


@<TRIPOS>ATOM
   1 C1            -0.0972     1.1986    -0.5382 C.2     
   2 N2             0.0007    -0.0058    -0.0194 N.2     
   3 C3             1.2447    -0.4624    -0.2082 C.2     
   4 C4             1.9521     0.4995    -0.8734 C.2     
   5 N5             1.1114     1.5386    -1.0795 N.pl3   
   6 C6            -1.3084     2.0385    -0.5413 C.2     
   7 O7            -1.2823     3.1415    -1.0532 O.2     
   8 N8            -2.4449     1.5843     0.0232 N.am    
   9 C9             1.7650    -1.7817     0.2291 C.ar    
  10 C10            0.9325    -2.6735     0.9026 C.ar    
  11 C11            1.4214    -3.8991     1.3064 C.ar    
  12 C12            2.7355    -4.2430     1.0442 C.ar    
  13 C13            3.5663    -3.3616     0.3766 C.ar    
  14 C14            3.0859    -2.1354    -0.0374 C.ar    
  15 C15            0.5223    -4.8645     2.0349 C.3     
  16 C16           -0.1845    -5.7670     1.0215 C.3     
  17 O17           -1.0370    -6.6825     1.7122 O.3     
  18 C18           -3.5601     2.4250     0.1262 C.ar    
  19 C19           -4.8460     1.8965     0.0209 C.ar    
  20 C20           -5.9474     2.7357     0.1239 C.ar    
  21 C21           -5.7659     4.0923     0.3305 C.ar    
  22 C22           -4.4900     4.6149     0.4347 C.ar    
  23 C23           -3.3885     3.7851     0.3390 C.ar    
  24 F24           -7.1955     2.2285     0.0221 F       
  25 N25           -5.0262     0.5232    -0.1887 N.3     
  26 C26           -5.7973    -0.0794     0.9061 C.3     
  27 C27           -5.8498    -1.5975     0.7194 C.3     
  28 C28           -6.5033    -1.9189    -0.6275 C.3     
  29 C29           -5.7089    -1.2397    -1.7464 C.3     
  30 C30           -5.6605     0.2680    -1.4883 C.3     
  31 C31           -6.5037    -3.4331    -0.8472 C.3     
  32 N32           -7.2362    -3.7486    -2.0808 N.3     
  33 H33            2.9868     0.4409    -1.1771 H       
  34 H34            1.3261     2.3711    -1.5286 H       
  35 H35           -2.4903     0.6751     0.3582 H       
  36 H36           -0.0933    -2.4057     1.1084 H       
  37 H37            3.1142    -5.2031     1.3624 H       
  38 H38            4.5915    -3.6348     0.1751 H       
  39 H39            3.7340    -1.4499    -0.5630 H       
  40 H40            1.1186    -5.4760     2.7121 H       
  41 H41           -0.2207    -4.3084     2.6065 H       
  42 H42           -0.7808    -5.1555     0.3443 H       
  43 H43            0.5586    -6.3231     0.4499 H       
  44 H44           -1.5182    -7.2870     1.1308 H       
  45 H45           -6.6231     4.7444     0.4101 H       
  46 H46           -4.3536     5.6741     0.5956 H       
  47 H47           -2.3937     4.1966     0.4254 H       
  48 H48           -5.3196     0.1531     1.8578 H       
  49 H49           -6.8105     0.3224     0.9007 H       
  50 H50           -4.8377    -2.0017     0.7385 H       
  51 H51           -6.4354    -2.0430     1.5236 H       
  52 H52           -7.5286    -1.5489    -0.6324 H       
  53 H53           -4.6945    -1.6383    -1.7661 H       
  54 H54           -6.1938    -1.4296    -2.7039 H       
  55 H55           -6.6743     0.6682    -1.4824 H       
  56 H56           -5.0833     0.7529    -2.2756 H       
  57 H57           -5.4768    -3.7879    -0.9335 H       
  58 H58           -6.9875    -3.9227    -0.0020 H       
  59 H59           -6.8459    -3.2549    -2.8695 H       
  60 H60           -7.2507    -4.7435    -2.2483 H       
@<TRIPOS>BOND
   1    1    2 2
   2    1    5 1
   3    1    6 1
   4    2    3 1
   5    3    4 2
   6    3    9 1
   7    4    5 1
   8    4   33 1
   9    5   34 1
  10    6    7 2
  11    6    8 am
  12    8   18 1
  13    8   35 1
  14    9   10 ar
  15    9   14 ar
  16   10   11 ar
  17   10   36 1
  18   11   12 ar
  19   11   15 1
  20   12   13 ar
  21   12   37 1
  22   13   14 ar
  23   13   38 1
  24   14   39 1
  25   15   16 1
  26   15   40 1
  27   15   41 1
  28   16   17 1
  29   16   42 1
  30   16   43 1
  31   17   44 1
  32   18   19 ar
  33   18   23 ar
  34   19   20 ar
  35   19   25 1
  36   20   21 ar
  37   20   24 1
  38   21   22 ar
  39   21   45 1
  40   22   23 ar
  41   22   46 1
  42   23   47 1
  43   25   26 1
  44   25   30 1
  45   26   27 1
  46   26   48 1
  47   26   49 1
  48   27   28 1
  49   27   50 1
  50   27   51 1
  51   28   29 1
  52   28   31 1
  53   28   52 1
  54   29   30 1
  55   29   53 1
  56   29   54 1
  57   30   55 1
  58   30   56 1
  59   31   32 1
  60   31   57 1
  61   31   58 1
  62   32   59 1
  63   32   60 1

#	End of record

