#	Name: ASD01882242
#	Creating user name:	WinNT
#	Creation time:	15. 06. 2019 19:44

#	Modifying user name:	WinNT
#	Modification time:	15. 06. 2019 19:44

#	Program:	/corina/corina34_cracker 3.40 0067  02.08.2006

@<TRIPOS>MOLECULE
ASD01882242
  51   54    0    0    0
SMALL
NO_CHARGES


@<TRIPOS>ATOM
   1 C1            -0.0178     1.4602     0.0101 C.2     
   2 C2             0.0021    -0.0041     0.0020 C.2     
   3 C3             1.2475    -0.6490    -0.0133 C.2     
   4 C4             2.4221     0.1322    -0.0204 C.2     
   5 C5             2.3605     1.4768    -0.0121 C.2     
   6 N6             1.1705     2.1448     0.0024 N.pl3   
   7 N7            -1.0020     2.3408     0.0295 N.2     
   8 C8            -0.4871     3.5748     0.0288 C.2     
   9 C9             0.8591     3.4798     0.0130 C.2     
  10 C10           -1.2162    -0.7566     0.0101 C.1     
  11 N11           -2.1827    -1.3536     0.0165 N.1     
  12 C12            1.8369     4.6266     0.0101 C.3     
  13 C13            2.0860     5.0880     1.4474 C.3     
  14 F14            2.6129     4.0279     2.1929 F       
  15 F15            2.9937     6.1526     1.4447 F       
  16 F16            0.8793     5.5056     2.0189 F       
  17 C17            1.3280    -2.1247    -0.0215 C.ar    
  18 C18            1.8656    -2.7902    -1.1259 C.ar    
  19 C19            1.9397    -4.1654    -1.1304 C.ar    
  20 C20            1.4798    -4.8918    -0.0365 C.ar    
  21 C21            0.9438    -4.2319     1.0648 C.ar    
  22 C22            0.8719    -2.8567     1.0774 C.ar    
  23 N23            1.5557    -6.2832    -0.0443 N.pl3   
  24 C24            1.0719    -7.0496     1.1067 C.3     
  25 C25            0.6807    -8.4577     0.6538 C.3     
  26 C26            0.1754    -9.2581     1.8559 C.3     
  27 C27            1.2816    -9.3499     2.9089 C.3     
  28 C28            1.6728    -7.9418     3.3618 C.3     
  29 C29            2.1781    -7.1414     2.1597 C.3     
  30 O30            0.8097   -10.0975     4.0316 O.3     
  31 H31            3.3854    -0.3560    -0.0322 H       
  32 H32            3.2797     2.0437    -0.0171 H       
  33 H33           -1.0538     4.4941     0.0423 H       
  34 H34            2.7771     4.3012    -0.4352 H       
  35 H35            1.4264     5.4526    -0.5707 H       
  36 H36            2.2225    -2.2269    -1.9754 H       
  37 H37            2.3549    -4.6805    -1.9840 H       
  38 H38            0.5873    -4.7985     1.9123 H       
  39 H39            0.4599    -2.3448     1.9345 H       
  40 H40            1.9289    -6.7443    -0.8117 H       
  41 H41            0.2025    -6.5512     1.5356 H       
  42 H42           -0.1074    -8.3923    -0.0963 H       
  43 H43            1.5501    -8.9561     0.2250 H       
  44 H44           -0.6940    -8.7597     2.2847 H       
  45 H45           -0.1033   -10.2612     1.5332 H       
  46 H46            2.1510    -9.8483     2.4800 H       
  47 H47            0.8034    -7.4435     3.7906 H       
  48 H48            2.4609    -8.0073     4.1119 H       
  49 H49            3.0475    -7.6398     1.7309 H       
  50 H50            2.4568    -6.1383     2.4824 H       
  51 H51            1.4604   -10.1961     4.7401 H       
@<TRIPOS>BOND
   1    1    2 1
   2    1    6 1
   3    1    7 2
   4    2    3 2
   5    2   10 1
   6    3    4 1
   7    3   17 1
   8    4    5 2
   9    4   31 1
  10    5    6 1
  11    5   32 1
  12    6    9 1
  13    7    8 1
  14    8    9 2
  15    8   33 1
  16    9   12 1
  17   10   11 3
  18   12   13 1
  19   12   34 1
  20   12   35 1
  21   13   14 1
  22   13   15 1
  23   13   16 1
  24   17   18 ar
  25   17   22 ar
  26   18   19 ar
  27   18   36 1
  28   19   20 ar
  29   19   37 1
  30   20   21 ar
  31   20   23 1
  32   21   22 ar
  33   21   38 1
  34   22   39 1
  35   23   24 1
  36   23   40 1
  37   24   25 1
  38   24   29 1
  39   24   41 1
  40   25   26 1
  41   25   42 1
  42   25   43 1
  43   26   27 1
  44   26   44 1
  45   26   45 1
  46   27   28 1
  47   27   30 1
  48   27   46 1
  49   28   29 1
  50   28   47 1
  51   28   48 1
  52   29   49 1
  53   29   50 1
  54   30   51 1

#	End of record

