#	Name: ASD00122005
#	Creating user name:	WinNT
#	Creation time:	15. 06. 2019 18:31

#	Modifying user name:	WinNT
#	Modification time:	15. 06. 2019 18:31

#	Program:	/corina/corina34_cracker 3.40 0067  02.08.2006

@<TRIPOS>MOLECULE
ASD00122005
  42   43    0    0    0
SMALL
NO_CHARGES


@<TRIPOS>ATOM
   1 C1             0.3547     1.0851     0.4243 C.ar    
   2 C2             0.0831    -0.1745    -0.0976 C.ar    
   3 C3             1.0867    -0.9007    -0.7285 C.ar    
   4 C4             2.3544    -0.3744    -0.8388 C.ar    
   5 C5             2.6312     0.8916    -0.3159 C.ar    
   6 C6             1.6197     1.6183     0.3177 C.ar    
   7 C7             3.9888     1.4592    -0.4315 C.2     
   8 N8             4.2539     2.6803     0.0735 N.am    
   9 O9             4.8679     0.8251    -0.9823 O.2     
  10 C10            5.6014     3.2437    -0.0413 C.3     
  11 C11            5.5218     4.7707     0.0101 C.3     
  12 C12            6.4655     2.7388     1.1160 C.3     
  13 C13            6.6480     1.2247     0.9934 C.3     
  14 C14            4.7629     5.2834    -1.2156 C.3     
  15 O15           -1.1648    -0.6967     0.0095 O.3     
  16 C16           -1.4441    -1.4642     1.0955 C.ar    
  17 C17           -0.5046    -1.6057     2.1068 C.ar    
  18 C18           -0.7911    -2.3865     3.2097 C.ar    
  19 C19           -2.0126    -3.0272     3.3062 C.ar    
  20 C20           -2.9506    -2.8878     2.2999 C.ar    
  21 C21           -2.6715    -2.1032     1.1978 C.ar    
  22 H22           -0.4286     1.6479     0.9101 H       
  23 H23            0.8720    -1.8790    -1.1324 H       
  24 H24            3.1337    -0.9394    -1.3284 H       
  25 H25            1.8297     2.5972     0.7228 H       
  26 H26            3.5525     3.1862     0.5129 H       
  27 H27            6.0450     2.9346    -0.9877 H       
  28 H28            4.9983     5.0770     0.9158 H       
  29 H29            6.5291     5.1871     0.0142 H       
  30 H30            7.4398     3.2262     1.0814 H       
  31 H31            5.9767     2.9704     2.0623 H       
  32 H32            7.2637     0.8650     1.8178 H       
  33 H33            5.6737     0.7373     1.0279 H       
  34 H34            7.1368     0.9931     0.0470 H       
  35 H35            3.7556     4.8670    -1.2197 H       
  36 H36            4.7062     6.3713    -1.1790 H       
  37 H37            5.2864     4.9771    -2.1213 H       
  38 H38            0.4499    -1.1061     2.0315 H       
  39 H39           -0.0602    -2.4970     3.9970 H       
  40 H40           -2.2343    -3.6378     4.1690 H       
  41 H41           -3.9040    -3.3893     2.3778 H       
  42 H42           -3.4046    -1.9944     0.4122 H       
@<TRIPOS>BOND
   1    1    2 ar
   2    1    6 ar
   3    1   22 1
   4    2    3 ar
   5    2   15 1
   6    3    4 ar
   7    3   23 1
   8    4    5 ar
   9    4   24 1
  10    5    6 ar
  11    5    7 1
  12    6   25 1
  13    7    8 am
  14    7    9 2
  15    8   10 1
  16    8   26 1
  17   10   11 1
  18   10   12 1
  19   10   27 1
  20   11   14 1
  21   11   28 1
  22   11   29 1
  23   12   13 1
  24   12   30 1
  25   12   31 1
  26   13   32 1
  27   13   33 1
  28   13   34 1
  29   14   35 1
  30   14   36 1
  31   14   37 1
  32   15   16 1
  33   16   17 ar
  34   16   21 ar
  35   17   18 ar
  36   17   38 1
  37   18   19 ar
  38   18   39 1
  39   19   20 ar
  40   19   40 1
  41   20   21 ar
  42   20   41 1
  43   21   42 1

#	End of record

