#	Name: ASD03081362
#	Creating user name:	WinNT
#	Creation time:	15. 06. 2019 20:27

#	Modifying user name:	WinNT
#	Modification time:	15. 06. 2019 20:27

#	Program:	/corina/corina34_cracker 3.40 0067  02.08.2006

@<TRIPOS>MOLECULE
ASD03081362
  26   28    0    0    0
SMALL
NO_CHARGES


@<TRIPOS>ATOM
   1 C1            -0.0169     1.3986     0.0097 C.ar    
   2 C2             0.0021    -0.0041     0.0020 C.ar    
   3 C3             1.2362    -0.6617    -0.0133 C.ar    
   4 C4             2.3903     0.1055    -0.0203 C.ar    
   5 C5             2.2892     1.4850    -0.0119 C.ar    
   6 N6             1.1127     2.0834     0.0026 N.ar    
   7 O7            -1.2027     2.0559     0.0189 O.3     
   8 O8            -2.5056    -0.2597     0.0256 O.3     
   9 C9            -1.2582    -0.7723     0.0105 C.2     
  10 N10           -1.3712    -2.0819     0.0046 N.2     
  11 N11           -2.6169    -2.4032     0.0153 N.2     
  12 C12           -3.3488    -1.3127     0.0284 C.2     
  13 C13           -5.4836    -0.0197     0.0566 C.ar    
  14 C14           -4.8249    -1.2506     0.0434 C.ar    
  15 C15           -5.5869    -2.4252     0.0443 C.ar    
  16 C16           -6.9660    -2.3121     0.0582 C.ar    
  17 C17           -7.5423    -1.0548     0.0707 C.ar    
  18 N18           -6.7991     0.0354     0.0700 N.ar    
  19 Cl19           3.9492    -0.6581    -0.0388 Cl      
  20 H20            1.2886    -1.7404    -0.0193 H       
  21 H21            3.1885     2.0830    -0.0170 H       
  22 H22           -1.5425     2.2417     0.9050 H       
  23 H23           -4.9093     0.8950     0.0607 H       
  24 H24           -5.1106    -3.3944     0.0340 H       
  25 H25           -7.5860    -3.1964     0.0589 H       
  26 H26           -8.6184    -0.9639     0.0816 H       
@<TRIPOS>BOND
   1    1    2 ar
   2    1    6 ar
   3    1    7 1
   4    2    3 ar
   5    2    9 1
   6    3    4 ar
   7    3   20 1
   8    4    5 ar
   9    4   19 1
  10    5    6 ar
  11    5   21 1
  12    7   22 1
  13    8    9 1
  14    8   12 1
  15    9   10 2
  16   10   11 1
  17   11   12 2
  18   12   14 1
  19   13   14 ar
  20   13   18 ar
  21   13   23 1
  22   14   15 ar
  23   15   16 ar
  24   15   24 1
  25   16   17 ar
  26   16   25 1
  27   17   18 ar
  28   17   26 1

#	End of record

