#	Name: ASD01911478
#	Creating user name:	WinNT
#	Creation time:	15. 06. 2019 19:57

#	Modifying user name:	WinNT
#	Modification time:	15. 06. 2019 19:57

#	Program:	/corina/corina34_cracker 3.40 0067  02.08.2006

@<TRIPOS>MOLECULE
ASD01911478
  31   33    0    0    0
SMALL
NO_CHARGES


@<TRIPOS>ATOM
   1 N1            -0.0014     1.3437    -0.1565 N.am    
   2 C2             0.0218     0.0018    -0.2184 C.2     
   3 N3             1.2363    -0.5292    -0.0127 N.am    
   4 C4             2.2036     0.5568     0.2258 C.3     
   5 C5             1.3478     1.8216     0.1250 C.3     
   6 C6             1.8635     2.7642    -0.9662 C.3     
   7 C7             1.6597     4.1960    -0.4331 C.3     
   8 C8             1.0069     4.0586     0.9589 C.3     
   9 C9             1.4020     2.6345     1.4293 C.3     
  10 O10           -0.9673    -0.6696    -0.4399 O.2     
  11 C11            1.5355    -1.8908    -0.0222 C.ar    
  12 C12            0.5037    -2.8228    -0.0165 C.ar    
  13 C13            0.8143    -4.1709    -0.0260 C.ar    
  14 C14            2.1526    -4.5423    -0.0410 C.ar    
  15 C15            3.1260    -3.5625    -0.0459 C.ar    
  16 N16            2.7990    -2.2842    -0.0420 N.ar    
  17 I17            2.6890    -6.5674    -0.0554 I       
  18 H18           -0.7845     1.9022    -0.2822 H       
  19 H19            2.6431     0.4685     1.2194 H       
  20 H20            2.9791     0.5556    -0.5401 H       
  21 H21            2.9221     2.5804    -1.1502 H       
  22 H22            1.2933     2.6218    -1.8842 H       
  23 H23            2.6209     4.7027    -0.3465 H       
  24 H24            1.0022     4.7530    -1.1006 H       
  25 H25            1.4043     4.8094     1.6419 H       
  26 H26           -0.0767     4.1476     0.8821 H       
  27 H27            0.6817     2.2527     2.1529 H       
  28 H28            2.4092     2.6305     1.8458 H       
  29 H29           -0.5265    -2.4986    -0.0044 H       
  30 H30            0.0340    -4.9175    -0.0216 H       
  31 H31            4.1680    -3.8462    -0.0576 H       
@<TRIPOS>BOND
   1    1    2 am
   2    1    5 1
   3    1   18 1
   4    2    3 am
   5    2   10 2
   6    3    4 1
   7    3   11 1
   8    4    5 1
   9    4   19 1
  10    4   20 1
  11    5    6 1
  12    5    9 1
  13    6    7 1
  14    6   21 1
  15    6   22 1
  16    7    8 1
  17    7   23 1
  18    7   24 1
  19    8    9 1
  20    8   25 1
  21    8   26 1
  22    9   27 1
  23    9   28 1
  24   11   12 ar
  25   11   16 ar
  26   12   13 ar
  27   12   29 1
  28   13   14 ar
  29   13   30 1
  30   14   15 ar
  31   14   17 1
  32   15   16 ar
  33   15   31 1

#	End of record

