#	Name: ASD03092435
#	Creating user name:	WinNT
#	Creation time:	15. 06. 2019 20:32

#	Modifying user name:	WinNT
#	Modification time:	15. 06. 2019 20:32

#	Program:	/corina/corina34_cracker 3.40 0067  02.08.2006

@<TRIPOS>MOLECULE
ASD03092435
  56   59    0    0    0
SMALL
NO_CHARGES


@<TRIPOS>ATOM
   1 O1             0.9175     1.1792    -0.3514 O.3     
   2 C2             0.7619    -0.1467    -0.2878 C.2     
   3 C3             1.9973    -0.7234    -0.2406 C.2     
   4 C4             2.9559     0.3906    -0.2817 C.2     
   5 C5             2.2184     1.5095    -0.3483 C.2     
   6 C6             2.3064    -2.1624    -0.1645 C.2     
   7 O7             3.4636    -2.5346    -0.1282 O.2     
   8 N8             1.3066    -3.0658    -0.1350 N.am    
   9 C9             1.6139    -4.4962    -0.0593 C.3     
  10 S10           -1.7198    -6.5819     0.6713 S.3     
  11 C11           -1.4122    -6.3049    -0.9872 C.2     
  12 N12           -0.3157    -5.6238    -1.1346 N.2     
  13 C13            0.3302    -5.2854    -0.0399 C.2     
  14 C14           -0.2539    -5.7048     1.1020 C.2     
  15 C15            0.8040    -6.2529     4.6636 C.ar    
  16 C16            0.3297    -6.5175     3.3971 C.ar    
  17 C17            0.2467    -5.4696     2.4704 C.ar    
  18 C18            0.6528    -4.1923     2.8792 C.ar    
  19 C19            1.1141    -4.0183     4.1661 C.ar    
  20 N20            1.1763    -5.0338     5.0074 N.ar    
  21 C21            1.5541    -2.6500     4.6191 C.3     
  22 C22            0.8926    -7.3691     5.6721 C.3     
  23 N23           -2.2155    -6.7435    -2.0240 N.3     
  24 C24           -3.3779    -7.4842    -1.5128 C.3     
  25 C25           -4.2058    -8.0013    -2.6923 C.3     
  26 O26           -4.5874    -6.8991    -3.5199 O.3     
  27 C27           -3.4797    -6.1558    -4.0356 C.3     
  28 C28           -2.6445    -5.6200    -2.8697 C.3     
  29 C29           -3.9962    -4.9851    -4.8744 C.3     
  30 C30           -5.4594    -8.7041    -2.1675 C.3     
  31 H31           -0.1815    -0.6723    -0.2758 H       
  32 H32            4.0335     0.3222    -0.2616 H       
  33 H33            2.6091     2.5153    -0.3928 H       
  34 H34            0.3837    -2.7688    -0.1640 H       
  35 H35            2.2062    -4.7870    -0.9269 H       
  36 H36            2.1788    -4.6988     0.8506 H       
  37 H37            0.0272    -7.5173     3.1227 H       
  38 H38            0.6054    -3.3571     2.1962 H       
  39 H39            0.7035    -2.1169     5.0438 H       
  40 H40            2.3337    -2.7506     5.3743 H       
  41 H41            1.9434    -2.0929     3.7670 H       
  42 H42            1.8699    -7.8465     5.6008 H       
  43 H43            0.7584    -6.9641     6.6751 H       
  44 H44            0.1136    -8.1042     5.4699 H       
  45 H45           -3.0368    -8.3264    -0.9107 H       
  46 H46           -3.9906    -6.8226    -0.9004 H       
  47 H47           -3.6103    -8.7045    -3.2745 H       
  48 H48           -2.8631    -6.8053    -4.6568 H       
  49 H49           -3.2454    -4.9286    -2.2790 H       
  50 H50           -1.7680    -5.1013    -3.2580 H       
  51 H51           -4.6111    -4.3353    -4.2516 H       
  52 H52           -3.1516    -4.4190    -5.2671 H       
  53 H53           -4.5940    -5.3670    -5.7020 H       
  54 H54           -6.0550    -7.9994    -1.5871 H       
  55 H55           -6.0484    -9.0720    -3.0076 H       
  56 H56           -5.1679    -9.5417    -1.5337 H       
@<TRIPOS>BOND
   1    1    2 1
   2    1    5 1
   3    2    3 2
   4    2   31 1
   5    3    4 1
   6    3    6 1
   7    4    5 2
   8    4   32 1
   9    5   33 1
  10    6    7 2
  11    6    8 am
  12    8    9 1
  13    8   34 1
  14    9   13 1
  15    9   35 1
  16    9   36 1
  17   10   11 1
  18   10   14 1
  19   11   12 2
  20   11   23 1
  21   12   13 1
  22   13   14 2
  23   14   17 1
  24   15   16 ar
  25   15   20 ar
  26   15   22 1
  27   16   17 ar
  28   16   37 1
  29   17   18 ar
  30   18   19 ar
  31   18   38 1
  32   19   20 ar
  33   19   21 1
  34   21   39 1
  35   21   40 1
  36   21   41 1
  37   22   42 1
  38   22   43 1
  39   22   44 1
  40   23   24 1
  41   23   28 1
  42   24   25 1
  43   24   45 1
  44   24   46 1
  45   25   26 1
  46   25   30 1
  47   25   47 1
  48   26   27 1
  49   27   28 1
  50   27   29 1
  51   27   48 1
  52   28   49 1
  53   28   50 1
  54   29   51 1
  55   29   52 1
  56   29   53 1
  57   30   54 1
  58   30   55 1
  59   30   56 1

#	End of record

