#	Name: ASD01881479
#	Creating user name:	WinNT
#	Creation time:	15. 06. 2019 19:42

#	Modifying user name:	WinNT
#	Modification time:	15. 06. 2019 19:42

#	Program:	/corina/corina34_cracker 3.40 0067  02.08.2006

@<TRIPOS>MOLECULE
ASD01881479
  50   52    0    0    0
SMALL
NO_CHARGES


@<TRIPOS>ATOM
   1 C1             0.7518     2.8191    -1.1066 C.2     
   2 C2             1.1784     2.0793     0.0020 C.2     
   3 C3             0.3421     2.0081     1.1326 C.2     
   4 C4            -0.8474     2.6473     1.1326 C.2     
   5 N5            -1.2616     3.3655     0.0551 N.am    
   6 C6            -0.4986     3.4715    -1.0486 C.2     
   7 C7            -2.3797     5.4560     0.6560 C.3     
   8 C8            -2.5601     4.0426     0.0989 C.3     
   9 O9            -0.8923     4.1224    -2.0029 O.2     
  10 N10            2.3980     1.4302    -0.0127 N.pl3   
  11 C11            3.6495     2.1908    -0.1308 C.3     
  12 C12            2.4683    -0.0334     0.0955 C.3     
  13 C13            3.4112    -0.3979     1.2465 C.3     
  14 C14            4.7646     0.2819     1.0268 C.3     
  15 C15            4.5767     1.7967     1.0232 C.3     
  16 C16            5.7057    -0.1018     2.1395 C.ar    
  17 C17            7.0625     0.1269     2.0069 C.ar    
  18 C18            5.2115    -0.6773     3.2951 C.ar    
  19 C19            6.0748    -1.0293     4.3158 C.ar    
  20 C20            7.4323    -0.8061     4.1807 C.ar    
  21 C21            7.9258    -0.2250     3.0276 C.ar    
  22 F22            5.2996    -0.1300    -0.1985 F       
  23 C23           -3.7358     6.1631     0.7017 C.3     
  24 C24           -3.5554     7.5766     1.2589 C.3     
  25 N25            1.5275     2.9120    -2.2137 N.1     
  26 C26            2.1778     2.9898    -3.1419 C.1     
  27 H27            0.6515     1.4424     1.9990 H       
  28 H28           -1.4816     2.5866     2.0046 H       
  29 H29           -1.9653     5.3997     1.6626 H       
  30 H30           -1.6996     6.0157     0.0139 H       
  31 H31           -2.9745     4.0989    -0.9077 H       
  32 H32           -3.2402     3.4829     0.7410 H       
  33 H33            4.1300     1.9585    -1.0812 H       
  34 H34            3.4347     3.2581    -0.0788 H       
  35 H35            1.4744    -0.4331     0.2968 H       
  36 H36            2.8505    -0.4507    -0.8361 H       
  37 H37            2.9824    -0.0585     2.1894 H       
  38 H38            3.5477    -1.4789     1.2766 H       
  39 H39            5.5431     2.2829     0.8902 H       
  40 H40            4.1380     2.1111     1.9703 H       
  41 H41            7.4482     0.5803     1.1057 H       
  42 H42            4.1509    -0.8517     3.4007 H       
  43 H43            5.6886    -1.4783     5.2189 H       
  44 H44            8.1067    -1.0808     4.9783 H       
  45 H45            8.9864    -0.0507     2.9220 H       
  46 H46           -4.1502     6.2195    -0.3048 H       
  47 H47           -4.4159     5.6035     1.3439 H       
  48 H48           -3.1409     7.5202     2.2654 H       
  49 H49           -2.8753     8.1362     0.6167 H       
  50 H50           -4.5215     8.0803     1.2914 H       
@<TRIPOS>BOND
   1    1   25 1
   2    1    2 2
   3    1    6 1
   4    2    3 1
   5    2   10 1
   6    3    4 2
   7    3   27 1
   8    4    5 1
   9    4   28 1
  10    5    6 am
  11    5    8 1
  12    6    9 2
  13    7    8 1
  14    7   23 1
  15    7   29 1
  16    7   30 1
  17    8   31 1
  18    8   32 1
  19   10   11 1
  20   10   12 1
  21   11   15 1
  22   11   33 1
  23   11   34 1
  24   12   13 1
  25   12   35 1
  26   12   36 1
  27   13   14 1
  28   13   37 1
  29   13   38 1
  30   14   15 1
  31   14   16 1
  32   14   22 1
  33   15   39 1
  34   15   40 1
  35   16   17 ar
  36   16   18 ar
  37   17   21 ar
  38   17   41 1
  39   18   19 ar
  40   18   42 1
  41   19   20 ar
  42   19   43 1
  43   20   21 ar
  44   20   44 1
  45   21   45 1
  46   23   24 1
  47   23   46 1
  48   23   47 1
  49   24   48 1
  50   24   49 1
  51   24   50 1
  52   25   26 3

#	End of record

