#	Name: ASD07930453
#	Creating user name:	WinNT
#	Creation time:	15. 06. 2019 21:12

#	Modifying user name:	WinNT
#	Modification time:	15. 06. 2019 21:12

#	Program:	/corina/corina34_cracker 3.40 0067  02.08.2006

@<TRIPOS>MOLECULE
ASD07930453
  45   47    0    0    0
SMALL
NO_CHARGES


@<TRIPOS>ATOM
   1 C1             0.0458     1.1675     0.2578 C.ar    
   2 N2             8.2813    -1.8695     0.7465 N.2     
   3 N3             7.1004    -0.0317    -0.0838 N.pl3   
   4 C4             7.3491     1.4137    -0.0796 C.3     
   5 C5             8.1320     1.7962    -1.3433 C.3     
   6 S6             9.6586     0.8055    -1.3911 S.o2    
   7 N7             9.0988    -0.7436    -1.1396 N.am    
   8 C8             8.1621    -0.9120    -0.1298 C.2     
   9 C9             8.1646     1.7881     1.1596 C.3     
  10 C10            6.0346     2.1504    -0.0596 C.ar    
  11 C11            4.8489     1.4486    -0.1502 C.ar    
  12 C12            3.6377     2.1281    -0.1313 C.ar    
  13 C13            3.6220     3.5122    -0.0214 C.ar    
  14 C14            4.8104     4.2103     0.0689 C.ar    
  15 C15            6.0166     3.5305     0.0552 C.ar    
  16 N16            2.4349     1.4188    -0.2233 N.am    
  17 C17            1.3470     1.8471     0.4472 C.2     
  18 O18            1.4345     2.7913     1.2076 O.2     
  19 O19           10.2026     0.7804    -2.7036 O.2     
  20 O20           10.4732     1.0794    -0.2594 O.2     
  21 F21            7.1778     4.2153     0.1436 F       
  22 N22           -0.0428     0.1367    -0.5742 N.ar    
  23 C23           -1.1785    -0.4953    -0.7713 C.ar    
  24 C24           -2.3357    -0.1035    -0.1110 C.ar    
  25 C25           -2.2861     0.9706     0.7683 C.ar    
  26 C26           -1.0740     1.6121     0.9590 C.ar    
  27 F27           -3.4975    -0.7599    -0.3220 F       
  28 C28            9.5718    -1.8721    -1.9452 C.3     
  29 H29           10.4466    -2.3162    -1.4702 H       
  30 H30            8.7821    -2.6193    -2.0230 H       
  31 H31            9.8387    -1.5205    -2.9418 H       
  32 H32            9.0344    -2.4791     0.6994 H       
  33 H33            6.1913    -0.3684    -0.0504 H       
  34 H34            7.5293     1.5854    -2.2267 H       
  35 H35            8.3828     2.8565    -1.3133 H       
  36 H36            9.1159     1.2562     1.1429 H       
  37 H37            8.3491     2.8624     1.1622 H       
  38 H38            7.6099     1.5126     2.0565 H       
  39 H39            4.8633     0.3721    -0.2360 H       
  40 H40            2.6813     4.0425    -0.0069 H       
  41 H41            4.7987     5.2869     0.1540 H       
  42 H42            2.3840     0.6190    -0.7698 H       
  43 H43           -1.2121    -1.3299    -1.4560 H       
  44 H44           -3.1717     1.2953     1.2943 H       
  45 H45           -0.9989     2.4508     1.6353 H       
@<TRIPOS>BOND
   1    1   22 ar
   2    1   17 1
   3    1   26 ar
   4    2    8 2
   5    2   32 1
   6    3    4 1
   7    3    8 1
   8    3   33 1
   9    4    5 1
  10    4    9 1
  11    4   10 1
  12    5    6 1
  13    5   34 1
  14    5   35 1
  15    6    7 am
  16    6   19 2
  17    6   20 2
  18    7    8 1
  19    7   28 1
  20    9   36 1
  21    9   37 1
  22    9   38 1
  23   10   11 ar
  24   10   15 ar
  25   11   12 ar
  26   11   39 1
  27   12   13 ar
  28   12   16 1
  29   13   14 ar
  30   13   40 1
  31   14   15 ar
  32   14   41 1
  33   15   21 1
  34   16   17 am
  35   16   42 1
  36   17   18 2
  37   22   23 ar
  38   23   24 ar
  39   23   43 1
  40   24   25 ar
  41   24   27 1
  42   25   26 ar
  43   25   44 1
  44   26   45 1
  45   28   29 1
  46   28   30 1
  47   28   31 1

#	End of record

