#	Name: ASD08178414
#	Creating user name:	WinNT
#	Creation time:	15. 06. 2019 21:18

#	Modifying user name:	WinNT
#	Modification time:	15. 06. 2019 21:18

#	Program:	/corina/corina34_cracker 3.40 0067  02.08.2006

@<TRIPOS>MOLECULE
ASD08178414
  67   70    0    0    0
SMALL
NO_CHARGES


@<TRIPOS>ATOM
   1 C1            -4.5209    -2.2424     2.8236 C.ar    
   2 C2            -4.6198    -1.7650     1.5301 C.ar    
   3 C3            -5.8594    -1.4648     0.9970 C.ar    
   4 C4            -7.0002    -1.6424     1.7574 C.ar    
   5 C5            -6.9013    -2.1207     3.0505 C.ar    
   6 C6            -5.6616    -2.4196     3.5841 C.ar    
   7 C7            -3.3762    -1.5713     0.7012 C.3     
   8 C8            -3.4579    -2.4292    -0.5351 C.2     
   9 N9            -2.4505    -2.4188    -1.4303 N.am    
  10 O10           -4.4302    -3.1289    -0.7245 O.2     
  11 C11           -2.4754    -3.2908    -2.5182 C.ar    
  12 C12           -1.4926    -3.2098    -3.5028 C.ar    
  13 N13           -3.4302    -4.2036    -2.6175 N.ar    
  14 N14           -3.4885    -5.0248    -3.6021 N.ar    
  15 C15           -2.6037    -5.0157    -4.5797 C.ar    
  16 C16           -1.5618    -4.0999    -4.5637 C.ar    
  17 C17           -2.7208    -6.0041    -5.7113 C.3     
  18 C18           -2.7681    -7.4246    -5.1448 C.3     
  19 C19           -2.8870    -8.4281    -6.2936 C.3     
  20 C20           -2.9344    -9.8486    -5.7271 C.3     
  21 C21           -3.0515   -10.8370    -6.8586 C.2     
  22 N22           -2.0681   -11.3961    -7.4895 N.2     
  23 N23           -2.3740   -12.2010    -8.4128 N.2     
  24 C24           -3.6363   -12.3971    -8.6482 C.2     
  25 S25           -4.5525   -11.4461    -7.5568 S.3     
  26 N26           -4.1576   -13.2431    -9.6211 N.am    
  27 C27           -3.3281   -13.9460   -10.4176 C.2     
  28 C28           -3.8930   -14.8628   -11.4718 C.3     
  29 O29           -2.1270   -13.8406   -10.2859 O.2     
  30 C30           -2.7641   -15.5249   -12.2190 C.ar    
  31 C31           -2.6365   -15.3412   -13.5831 C.ar    
  32 C32           -1.6010   -15.9486   -14.2685 C.ar    
  33 C33           -0.6928   -16.7393   -13.5896 C.ar    
  34 C34           -0.8198   -16.9222   -12.2254 C.ar    
  35 C35           -1.8528   -16.3113   -11.5393 C.ar    
  36 C36           -4.7604   -15.9327   -10.8057 C.3     
  37 C37           -3.2581    -0.1010     0.2948 C.3     
  38 H38           -3.5528    -2.4812     3.2385 H       
  39 H39           -5.9367    -1.0911    -0.0133 H       
  40 H40           -7.9686    -1.4072     1.3411 H       
  41 H41           -7.7925    -2.2588     3.6448 H       
  42 H42           -5.5844    -2.7936     4.5943 H       
  43 H43           -2.5019    -1.8582     1.2854 H       
  44 H44           -1.7081    -1.8047    -1.3179 H       
  45 H45           -0.7021    -2.4765    -3.4416 H       
  46 H46           -0.8284    -4.0781    -5.3563 H       
  47 H47           -3.6336    -5.8065    -6.2733 H       
  48 H48           -1.8590    -5.9047    -6.3712 H       
  49 H49           -1.8553    -7.6222    -4.5827 H       
  50 H50           -3.6299    -7.5240    -4.4848 H       
  51 H51           -3.7998    -8.2305    -6.8556 H       
  52 H52           -2.0253    -8.3286    -6.9535 H       
  53 H53           -2.0216   -10.0462    -5.1651 H       
  54 H54           -3.7961    -9.9480    -5.0671 H       
  55 H55           -5.1182   -13.3274    -9.7264 H       
  56 H56           -4.5001   -14.2848   -12.1685 H       
  57 H57           -3.3461   -14.7234   -14.1135 H       
  58 H58           -1.5018   -15.8056   -15.3344 H       
  59 H59            0.1158   -17.2144   -14.1252 H       
  60 H60           -0.1105   -17.5403   -11.6950 H       
  61 H61           -1.9521   -16.4543   -10.4734 H       
  62 H62           -5.5769   -15.4538   -10.2652 H       
  63 H63           -5.1690   -16.5958   -11.5682 H       
  64 H64           -4.1532   -16.5107   -10.1089 H       
  65 H65           -3.1990     0.5195     1.1890 H       
  66 H66           -2.3586     0.0391    -0.3047 H       
  67 H67           -4.1324     0.1859    -0.2894 H       
@<TRIPOS>BOND
   1    1    2 ar
   2    1    6 ar
   3    1   38 1
   4    2    3 ar
   5    2    7 1
   6    3    4 ar
   7    3   39 1
   8    4    5 ar
   9    4   40 1
  10    5    6 ar
  11    5   41 1
  12    6   42 1
  13    7    8 1
  14    7   37 1
  15    7   43 1
  16    8    9 am
  17    8   10 2
  18    9   11 1
  19    9   44 1
  20   11   12 ar
  21   11   13 ar
  22   12   16 ar
  23   12   45 1
  24   13   14 ar
  25   14   15 ar
  26   15   16 ar
  27   15   17 1
  28   16   46 1
  29   17   18 1
  30   17   47 1
  31   17   48 1
  32   18   19 1
  33   18   49 1
  34   18   50 1
  35   19   20 1
  36   19   51 1
  37   19   52 1
  38   20   21 1
  39   20   53 1
  40   20   54 1
  41   21   22 2
  42   21   25 1
  43   22   23 1
  44   23   24 2
  45   24   25 1
  46   24   26 1
  47   26   27 am
  48   26   55 1
  49   27   28 1
  50   27   29 2
  51   28   30 1
  52   28   36 1
  53   28   56 1
  54   30   31 ar
  55   30   35 ar
  56   31   32 ar
  57   31   57 1
  58   32   33 ar
  59   32   58 1
  60   33   34 ar
  61   33   59 1
  62   34   35 ar
  63   34   60 1
  64   35   61 1
  65   36   62 1
  66   36   63 1
  67   36   64 1
  68   37   65 1
  69   37   66 1
  70   37   67 1

#	End of record

