#	Name: ASD01814534
#	Creating user name:	WinNT
#	Creation time:	15. 06. 2019 19:32

#	Modifying user name:	WinNT
#	Modification time:	15. 06. 2019 19:32

#	Program:	/corina/corina34_cracker 3.40 0067  02.08.2006

@<TRIPOS>MOLECULE
ASD01814534
  62   68    0    0    0
SMALL
NO_CHARGES


@<TRIPOS>ATOM
   1 C1             0.0825     1.2411    -0.0281 C.ar    
   2 C2             0.1613    -0.1393     0.0936 C.ar    
   3 C3            -0.9930    -0.8986     0.0973 C.ar    
   4 C4            -2.2267    -0.2859    -0.0200 C.ar    
   5 C5            -2.3109     1.0894    -0.1415 C.ar    
   6 C6            -1.1603     1.8561    -0.1407 C.ar    
   7 F7            -1.2422     3.1994    -0.2594 F       
   8 N8             1.2509     2.0134    -0.0317 N.am    
   9 C9             2.0090     2.2683    -1.1180 C.2     
  10 N10            1.8034     2.6411     1.0891 N.2     
  11 C11            2.8921     3.2814     0.7462 C.2     
  12 C12            3.0804     3.0736    -0.6935 C.2     
  13 O13            1.8035     1.8728    -2.2570 O.2     
  14 N14            3.8121     4.0531     1.4392 N.pl3   
  15 C15            4.8752     4.6035     0.7797 C.2     
  16 C16            5.0604     4.4049    -0.5975 C.2     
  17 C17            4.1877     3.6581    -1.3293 C.2     
  18 C18            3.6477     4.2562     2.7725 C.2     
  19 C19            4.5303     5.0055     3.4750 C.2     
  20 C20            5.6299     5.5829     2.8292 C.2     
  21 C21            5.8027     5.3843     1.4900 C.2     
  22 C22            6.2479     5.0327    -1.2807 C.3     
  23 N23            7.3286     4.0438    -1.3910 N.3     
  24 C24            7.8402     3.6712    -0.0623 C.3     
  25 C25            8.4193     4.5488    -2.2310 C.3     
  26 C26            9.5622     3.5680    -2.2567 C.ar    
  27 C27            9.6868     2.5715    -1.3127 C.ar    
  28 C28            8.6801     2.4015    -0.2041 C.3     
  29 C29           10.5086     3.6833    -3.2645 C.ar    
  30 C30           11.5736     2.8076    -3.3253 C.ar    
  31 C31           11.6996     1.8099    -2.3764 C.ar    
  32 C32           10.7588     1.6938    -1.3730 C.ar    
  33 C33            7.9112     4.7586    -3.6341 C.ar    
  34 C34            8.2091     5.9198    -4.3307 C.ar    
  35 C35            7.1395     3.7924    -4.2614 C.ar    
  36 C36            6.6912     4.0198    -5.5488 C.ar    
  37 N37            6.9899     5.1389    -6.1792 N.ar    
  38 C38            7.7256     6.0771    -5.6158 C.ar    
  39 H39            1.1244    -0.6196     0.1850 H       
  40 H40           -0.9314    -1.9728     0.1917 H       
  41 H41           -3.1270    -0.8825    -0.0171 H       
  42 H42           -3.2762     1.5649    -0.2330 H       
  43 H43            4.3464     3.5158    -2.3881 H       
  44 H44            2.8019     3.8147     3.2785 H       
  45 H45            4.3854     5.1580     4.5344 H       
  46 H46            6.3358     6.1810     3.3862 H       
  47 H47            6.6468     5.8240     0.9797 H       
  48 H48            5.9588     5.3676    -2.2768 H       
  49 H49            6.5940     5.8855    -0.6968 H       
  50 H50            8.4590     4.4776     0.3312 H       
  51 H51            7.0048     3.4842     0.6125 H       
  52 H52            8.7702     5.5006    -1.8321 H       
  53 H53            9.2026     2.2072     0.7326 H       
  54 H54            8.0274     1.5593    -0.4340 H       
  55 H55           10.4113     4.4625    -4.0059 H       
  56 H56           12.3068     2.9012    -4.1127 H       
  57 H57           12.5322     1.1234    -2.4200 H       
  58 H58           10.8577     0.9149    -0.6315 H       
  59 H59            8.8111     6.6918    -3.8746 H       
  60 H60            6.8921     2.8736    -3.7505 H       
  61 H61            6.0896     3.2723    -6.0443 H       
  62 H62            7.9496     6.9806    -6.1635 H       
@<TRIPOS>BOND
   1    1    2 ar
   2    1    8 1
   3    1    6 ar
   4    2    3 ar
   5    2   39 1
   6    3    4 ar
   7    3   40 1
   8    4    5 ar
   9    4   41 1
  10    5    6 ar
  11    5   42 1
  12    6    7 1
  13    8    9 am
  14    8   10 1
  15    9   13 2
  16    9   12 1
  17   10   11 2
  18   11   12 1
  19   11   14 1
  20   12   17 2
  21   14   15 1
  22   14   18 1
  23   15   16 2
  24   15   21 1
  25   16   17 1
  26   16   22 1
  27   17   43 1
  28   18   19 2
  29   18   44 1
  30   19   20 1
  31   19   45 1
  32   20   21 2
  33   20   46 1
  34   21   47 1
  35   22   23 1
  36   22   48 1
  37   22   49 1
  38   23   24 1
  39   23   25 1
  40   24   28 1
  41   24   50 1
  42   24   51 1
  43   25   26 1
  44   25   33 1
  45   25   52 1
  46   26   27 ar
  47   26   29 ar
  48   27   28 1
  49   27   32 ar
  50   28   53 1
  51   28   54 1
  52   29   30 ar
  53   29   55 1
  54   30   31 ar
  55   30   56 1
  56   31   32 ar
  57   31   57 1
  58   32   58 1
  59   33   34 ar
  60   33   35 ar
  61   34   38 ar
  62   34   59 1
  63   35   36 ar
  64   35   60 1
  65   36   37 ar
  66   36   61 1
  67   37   38 ar
  68   38   62 1

#	End of record

