#	Name: ASD08150049
#	Creating user name:	WinNT
#	Creation time:	15. 06. 2019 21:15

#	Modifying user name:	WinNT
#	Modification time:	15. 06. 2019 21:15

#	Program:	/corina/corina34_cracker 3.40 0067  02.08.2006

@<TRIPOS>MOLECULE
ASD08150049
  46   50    0    0    0
SMALL
NO_CHARGES


@<TRIPOS>ATOM
   1 N1            -0.0155     1.2942     0.0092 N.2     
   2 C2             0.0021    -0.0041     0.0020 C.2     
   3 N3             1.1489    -0.7360    -0.0129 N.am    
   4 C4             2.3562    -0.1243    -0.0206 C.2     
   5 C5             2.3705     1.3450    -0.0129 C.ar    
   6 C6             3.5614     2.0710    -0.0195 C.ar    
   7 C7             3.5160     3.4496    -0.0113 C.ar    
   8 C8             2.2980     4.1155     0.0039 C.ar    
   9 C9             1.1114     3.4169     0.0106 C.ar    
  10 C10            1.1299     2.0209     0.0021 C.ar    
  11 O11            3.3903    -0.7666    -0.0332 O.2     
  12 C12            1.0795    -2.1349    -0.0197 C.ar    
  13 C13            1.0565    -2.8364     1.1787 C.ar    
  14 C14            0.9415    -4.8982    -0.0333 C.ar    
  15 C15            1.0278    -2.8229    -1.2246 C.ar    
  16 C16            0.9876    -4.2155     1.1686 C.ar    
  17 C17            0.9589    -4.2025    -1.2280 C.ar    
  18 C18            1.1072    -2.0932     2.4888 C.3     
  19 Cl19           5.0888     1.2461    -0.0373 Cl      
  20 C20           -1.3145    -0.7374     0.0112 C.3     
  21 N21           -3.9892     1.5401     0.7810 N.2     
  22 C22           -3.0701     0.6878     1.1311 C.2     
  23 N23           -2.4131     0.2317     0.0273 N.pl3   
  24 C24           -2.9690     0.8468    -1.0658 C.ar    
  25 N25           -2.7544     0.8047    -2.3766 N.ar    
  26 C26           -3.4771     1.5362    -3.1986 C.ar    
  27 N27           -4.4373     2.3380    -2.7761 N.ar    
  28 C28           -4.7244     2.4462    -1.4829 C.ar    
  29 C29           -3.9805     1.6847    -0.5660 C.ar    
  30 N30           -5.7324     3.2897    -1.0495 N.pl3   
  31 H31            4.4358     4.0157    -0.0163 H       
  32 H32            2.2809     5.1954     0.0109 H       
  33 H33            0.1703     3.9466     0.0228 H       
  34 H34            0.8879    -5.9769    -0.0386 H       
  35 H35            1.0410    -2.2800    -2.1581 H       
  36 H36            0.9700    -4.7616     2.1002 H       
  37 H37            0.9231    -4.7385    -2.1649 H       
  38 H38            0.0931    -1.8625     2.8151 H       
  39 H39            1.5982    -2.7128     3.2392 H       
  40 H40            1.6669    -1.1669     2.3596 H       
  41 H41           -1.3907    -1.3583    -0.8814 H       
  42 H42           -1.3730    -1.3678     0.8984 H       
  43 H43           -2.8588     0.3867     2.1465 H       
  44 H44           -3.2768     1.4785    -4.2583 H       
  45 H45           -6.2387     3.8106    -1.6923 H       
  46 H46           -5.9325     3.3600    -0.1030 H       
@<TRIPOS>BOND
   1    1    2 2
   2    1   10 1
   3    2    3 1
   4    2   20 1
   5    3    4 am
   6    3   12 1
   7    4    5 1
   8    4   11 2
   9    5    6 ar
  10    5   10 ar
  11    6    7 ar
  12    6   19 1
  13    7    8 ar
  14    7   31 1
  15    8    9 ar
  16    8   32 1
  17    9   10 ar
  18    9   33 1
  19   12   13 ar
  20   12   15 ar
  21   13   16 ar
  22   13   18 1
  23   14   16 ar
  24   14   17 ar
  25   14   34 1
  26   15   17 ar
  27   15   35 1
  28   16   36 1
  29   17   37 1
  30   18   38 1
  31   18   39 1
  32   18   40 1
  33   20   23 1
  34   20   41 1
  35   20   42 1
  36   21   22 2
  37   21   29 1
  38   22   23 1
  39   22   43 1
  40   23   24 1
  41   24   25 ar
  42   24   29 ar
  43   25   26 ar
  44   26   27 ar
  45   26   44 1
  46   27   28 ar
  47   28   29 ar
  48   28   30 1
  49   30   45 1
  50   30   46 1

#	End of record

