#	Name: ASD03930189
#	Creating user name:	WinNT
#	Creation time:	15. 06. 2019 20:47

#	Modifying user name:	WinNT
#	Modification time:	15. 06. 2019 20:47

#	Program:	/corina/corina34_cracker 3.40 0067  02.08.2006

@<TRIPOS>MOLECULE
ASD03930189
  54   57    0    0    0
SMALL
NO_CHARGES


@<TRIPOS>ATOM
   1 S1            -0.0774     4.0233    -0.9971 S.o2    
   2 N2            -0.7567     2.5390    -1.3335 N.am    
   3 C3            -0.4949     1.9088    -2.6237 C.3     
   4 C4             0.9734     1.5713    -2.8343 C.3     
   5 O5             1.7778     2.7561    -2.8734 O.3     
   6 C6             2.3629     3.1104    -1.7011 C.ar    
   7 C7             1.6330     3.6774    -0.6655 C.ar    
   8 C8             3.7225     2.8875    -1.5124 C.ar    
   9 C9             4.3089     3.1884    -0.2993 C.ar    
  10 C10            3.5556     3.7138     0.7402 C.ar    
  11 C11            2.2000     3.9642     0.5481 C.ar    
  12 C12           -1.5393     1.9265    -0.4231 C.2     
  13 O13           -2.0314     0.8444    -0.6747 O.2     
  14 O14           -1.7760     2.5137     0.7651 O.3     
  15 O15            4.1377     3.9825     1.9392 O.3     
  16 C16            3.3386     4.3938     2.9584 C.ar    
  17 C17            3.1148     5.7459     3.1604 C.ar    
  18 C18            2.2938     6.1635     4.2072 C.ar    
  19 C19            1.7026     5.2161     5.0448 C.ar    
  20 C20            1.9319     3.8718     4.8349 C.ar    
  21 C21            2.7420     3.4585     3.7933 C.ar    
  22 S22            1.0426     8.2872     5.7034 S.3     
  23 C23            2.0505     7.6051     4.4296 C.2     
  24 N24            2.5473     8.5742     3.7157 N.2     
  25 C25            2.2213     9.7982     4.0614 C.2     
  26 C26            1.4085     9.9088     5.1176 C.2     
  27 O27           -0.1174     4.7750    -2.2024 O.2     
  28 O28           -0.6499     4.4686     0.2249 O.2     
  29 C29           -2.6281     1.7965     1.6968 C.3     
  30 C30           -1.9973     0.4420     2.0259 C.3     
  31 C31           -2.7806     2.6137     2.9812 C.3     
  32 C32           -4.0043     1.5782     1.0648 C.3     
  33 H33           -1.0789     0.9909    -2.6907 H       
  34 H34           -0.8164     2.5849    -3.4160 H       
  35 H35            1.3142     0.9350    -2.0175 H       
  36 H36            1.0846     1.0329    -3.7754 H       
  37 H37            4.3194     2.4789    -2.3144 H       
  38 H38            5.3651     3.0126    -0.1580 H       
  39 H39            1.6025     4.3798     1.3460 H       
  40 H40            3.5752     6.4743     2.5094 H       
  41 H41            1.0662     5.5352     5.8570 H       
  42 H42            1.4739     3.1398     5.4837 H       
  43 H43            2.9147     2.4048     3.6313 H       
  44 H44            2.5871    10.6621     3.5263 H       
  45 H45            1.0397    10.8324     5.5387 H       
  46 H46           -1.0169     0.5976     2.4761 H       
  47 H47           -2.6370    -0.0963     2.7253 H       
  48 H48           -1.8887    -0.1401     1.1108 H       
  49 H49           -3.2299     3.5787     2.7467 H       
  50 H50           -3.4202     2.0754     3.6806 H       
  51 H51           -1.8002     2.7693     3.4314 H       
  52 H52           -3.8956     0.9960     0.1497 H       
  53 H53           -4.6439     1.0398     1.7642 H       
  54 H54           -4.4536     2.5432     0.8303 H       
@<TRIPOS>BOND
   1    1    2 am
   2    1    7 1
   3    1   27 2
   4    1   28 2
   5    2    3 1
   6    2   12 am
   7    3    4 1
   8    3   33 1
   9    3   34 1
  10    4    5 1
  11    4   35 1
  12    4   36 1
  13    5    6 1
  14    6    7 ar
  15    6    8 ar
  16    7   11 ar
  17    8    9 ar
  18    8   37 1
  19    9   10 ar
  20    9   38 1
  21   10   11 ar
  22   10   15 1
  23   11   39 1
  24   12   13 2
  25   12   14 1
  26   14   29 1
  27   15   16 1
  28   16   17 ar
  29   16   21 ar
  30   17   18 ar
  31   17   40 1
  32   18   19 ar
  33   18   23 1
  34   19   20 ar
  35   19   41 1
  36   20   21 ar
  37   20   42 1
  38   21   43 1
  39   22   23 1
  40   22   26 1
  41   23   24 2
  42   24   25 1
  43   25   26 2
  44   25   44 1
  45   26   45 1
  46   29   30 1
  47   29   32 1
  48   29   31 1
  49   30   46 1
  50   30   47 1
  51   30   48 1
  52   31   49 1
  53   31   50 1
  54   31   51 1
  55   32   52 1
  56   32   53 1
  57   32   54 1

#	End of record

