#	Name: ASD05430733
#	Creating user name:	WinNT
#	Creation time:	15. 06. 2019 21:00

#	Modifying user name:	WinNT
#	Modification time:	15. 06. 2019 21:00

#	Program:	/corina/corina34_cracker 3.40 0067  02.08.2006

@<TRIPOS>MOLECULE
ASD05430733
  56   60    0    0    0
SMALL
NO_CHARGES


@<TRIPOS>ATOM
   1 C1            -0.0534     1.2233     0.0720 C.2     
   2 C2            -0.0968    -0.1635    -0.1314 C.2     
   3 C3            -1.4014    -0.8097    -0.2779 C.2     
   4 C4            -2.5132    -0.0522    -0.2125 C.2     
   5 N5            -2.4387     1.2975    -0.0133 N.am    
   6 C6            -1.2641     1.9369     0.1317 C.2     
   7 O7            -1.2484     3.1446     0.3077 O.2     
   8 C8            -3.6797     2.0735     0.0495 C.3     
   9 C9            -4.4704     1.8766    -1.2454 C.3     
  10 C10           -4.5065     1.6049     1.2191 C.ar    
  11 C11           -3.8840     1.1602     2.3704 C.ar    
  12 C12           -4.6416     0.7298     3.4460 C.ar    
  13 C13           -6.0253     0.7450     3.3680 C.ar    
  14 C14           -6.6476     1.1912     2.2128 C.ar    
  15 C15           -5.8864     1.6257     1.1413 C.ar    
  16 N16            1.2724     1.5807     0.1778 N.pl3   
  17 C17            2.0441     0.4563     0.0457 C.2     
  18 C18            1.2330    -0.6216    -0.1440 C.2     
  19 C19            3.5209     0.4188     0.1002 C.ar    
  20 C20            4.1953    -0.7940    -0.0487 C.ar    
  21 C21            5.5769    -0.8245     0.0030 C.ar    
  22 C22            6.2926     0.3548     0.2035 C.ar    
  23 C23            5.6207     1.5608     0.3516 C.ar    
  24 C24            4.2436     1.5974     0.2950 C.ar    
  25 N25            7.6934     0.3230     0.2563 N.pl3   
  26 C26            8.4541    -0.5103     1.0123 C.2     
  27 N27            9.7119    -0.2391     0.7925 N.2     
  28 C28            9.8019     0.7607    -0.0970 C.2     
  29 C29            8.5538     1.1231    -0.4498 C.2     
  30 C30           11.0790     1.3692    -0.6164 C.3     
  31 F31           -7.9962     1.2065     2.1342 F       
  32 F32           -4.0327     0.2949     4.5708 F       
  33 Cl33          -1.5143    -2.5233    -0.5321 Cl      
  34 F34           -6.7665     0.3249     4.4165 F       
  35 O35            6.2369    -2.0043    -0.1413 O.3     
  36 C36            5.4398    -3.1731    -0.3431 C.3     
  37 H37           -3.4807    -0.5199    -0.3199 H       
  38 H38           -3.4418     3.1300     0.1729 H       
  39 H39           -3.8725     2.2155    -2.0914 H       
  40 H40           -4.7084     0.8201    -1.3688 H       
  41 H41           -5.3938     2.4539    -1.1987 H       
  42 H42           -2.8057     1.1483     2.4306 H       
  43 H43           -6.3709     1.9735     0.2409 H       
  44 H44            1.6052     2.4803     0.3221 H       
  45 H45            1.5533    -1.6441    -0.2789 H       
  46 H46            3.6394    -1.7068    -0.2037 H       
  47 H47            6.1781     2.4726     0.5072 H       
  48 H48            3.7234     2.5368     0.4101 H       
  49 H49            8.0808    -1.2699     1.6832 H       
  50 H50            8.2826     1.9001    -1.1492 H       
  51 H51           11.4005     0.8324    -1.5089 H       
  52 H52           10.9078     2.4167    -0.8643 H       
  53 H53           11.8525     1.2985     0.1484 H       
  54 H54            4.7754    -3.3115     0.5098 H       
  55 H55            4.8469    -3.0563    -1.2503 H       
  56 H56            6.0891    -4.0429    -0.4429 H       
@<TRIPOS>BOND
   1    1    2 2
   2    1   16 1
   3    1    6 1
   4    2    3 1
   5    2   18 1
   6    3    4 2
   7    3   33 1
   8    4    5 1
   9    4   37 1
  10    5    6 am
  11    5    8 1
  12    6    7 2
  13    8    9 1
  14    8   10 1
  15    8   38 1
  16    9   39 1
  17    9   40 1
  18    9   41 1
  19   10   11 ar
  20   10   15 ar
  21   11   12 ar
  22   11   42 1
  23   12   13 ar
  24   12   32 1
  25   13   14 ar
  26   13   34 1
  27   14   15 ar
  28   14   31 1
  29   15   43 1
  30   16   17 1
  31   16   44 1
  32   17   18 2
  33   17   19 1
  34   18   45 1
  35   19   20 ar
  36   19   24 ar
  37   20   21 ar
  38   20   46 1
  39   21   22 ar
  40   21   35 1
  41   22   23 ar
  42   22   25 1
  43   23   24 ar
  44   23   47 1
  45   24   48 1
  46   25   26 1
  47   25   29 1
  48   26   27 2
  49   26   49 1
  50   27   28 1
  51   28   29 2
  52   28   30 1
  53   29   50 1
  54   30   51 1
  55   30   52 1
  56   30   53 1
  57   35   36 1
  58   36   54 1
  59   36   55 1
  60   36   56 1

#	End of record

