#	Name: ASD02030496
#	Creating user name:	WinNT
#	Creation time:	15. 06. 2019 20:15

#	Modifying user name:	WinNT
#	Modification time:	15. 06. 2019 20:15

#	Program:	/corina/corina34_cracker 3.40 0067  02.08.2006

@<TRIPOS>MOLECULE
ASD02030496
  63   67    0    0    0
SMALL
NO_CHARGES


@<TRIPOS>ATOM
   1 N1            -0.6611     0.7363    -0.0442 N.am    
   2 C2            -0.6787    -0.7330    -0.0703 C.3     
   3 C3            -1.5104    -1.2343     1.1168 C.3     
   4 N4            -2.7895    -0.5109     1.1328 N.am    
   5 C5            -2.7720     0.9585     1.1589 C.3     
   6 C6            -1.9402     1.4597    -0.0225 C.3     
   7 C7             0.5072     1.4083    -0.0346 C.2     
   8 C8             1.7827     0.6714     0.0900 C.2     
   9 N9             2.9743     1.2077     0.2426 N.2     
  10 N10            1.9289    -0.6662     0.0731 N.2     
  11 C11            3.2054    -0.9197     0.2106 C.2     
  12 N12            3.8468     0.2623     0.3155 N.pl3   
  13 O13            0.5120     2.6202    -0.1285 O.2     
  14 C14           -3.9578    -1.1828     1.1233 C.2     
  15 C15           -3.9610    -2.6617     1.0359 C.ar    
  16 O16           -5.0085    -0.5756     1.1865 O.2     
  17 C17           -1.6810     2.9596     0.1316 C.3     
  18 C18           -2.6926     1.1965    -1.3285 C.3     
  19 C19            5.2284     0.4331     0.4762 C.ar    
  20 C20            5.7647     1.7099     0.5718 C.ar    
  21 C21            7.1281     1.8750     0.7307 C.ar    
  22 C22            7.9572     0.7689     0.7940 C.ar    
  23 C23            7.4248    -0.5038     0.6989 C.ar    
  24 C24            6.0630    -0.6747     0.5458 C.ar    
  25 Cl25           7.8004     3.4711     0.8505 Cl      
  26 N26           -2.9152    -3.3492     1.4813 N.ar    
  27 C27           -2.8793    -4.6682     1.4213 C.ar    
  28 C28           -3.9472    -5.3864     0.8840 C.ar    
  29 C29           -5.0524    -4.7029     0.4109 C.ar    
  30 C30           -5.0617    -3.3174     0.4934 C.ar    
  31 N31           -1.7648    -5.3478     1.8985 N.3     
  32 C32           -0.6684    -4.4122     2.2091 C.3     
  33 C33           -0.2885    -4.6283     3.6891 C.3     
  34 C34           -0.8017    -6.0641     3.9756 C.3     
  35 C35           -2.0931    -6.1110     3.1214 C.3     
  36 H36           -1.1270    -1.0770    -1.0023 H       
  37 H37            0.3399    -1.1125     0.0105 H       
  38 H38           -1.6958    -2.3029     1.0083 H       
  39 H39           -0.9722    -1.0464     2.0459 H       
  40 H40           -3.7906     1.3380     1.0782 H       
  41 H41           -2.3236     1.3025     2.0910 H       
  42 H42            3.6621    -1.8980     0.2383 H       
  43 H43           -0.9201     3.1203     0.8954 H       
  44 H44           -1.3347     3.3680    -0.8178 H       
  45 H45           -2.6036     3.4593     0.4271 H       
  46 H46           -3.6478     1.7213    -1.3096 H       
  47 H47           -2.0979     1.5546    -2.1689 H       
  48 H48           -2.8681     0.1263    -1.4374 H       
  49 H49            5.1177     2.5732     0.5217 H       
  50 H50            9.0221     0.8999     0.9174 H       
  51 H51            8.0744    -1.3652     0.7482 H       
  52 H52            5.6482    -1.6692     0.4720 H       
  53 H53           -3.9113    -6.4648     0.8376 H       
  54 H54           -5.8920    -5.2360    -0.0101 H       
  55 H55           -5.9099    -2.7544     0.1327 H       
  56 H56            0.1902    -4.6223     1.5713 H       
  57 H57           -1.0028    -3.3858     2.0582 H       
  58 H58            0.7919    -4.5716     3.8219 H       
  59 H59           -0.7948    -3.9036     4.3267 H       
  60 H60           -0.0827    -6.8104     3.6377 H       
  61 H61           -1.0286    -6.1937     5.0338 H       
  62 H62           -2.9179    -5.6377     3.6541 H       
  63 H63           -2.3443    -7.1413     2.8697 H       
@<TRIPOS>BOND
   1    1    2 1
   2    1    7 am
   3    1    6 1
   4    2    3 1
   5    2   36 1
   6    2   37 1
   7    3    4 1
   8    3   38 1
   9    3   39 1
  10    4    5 1
  11    4   14 am
  12    5    6 1
  13    5   40 1
  14    5   41 1
  15    6   17 1
  16    6   18 1
  17    7    8 1
  18    7   13 2
  19    8    9 2
  20    8   10 1
  21    9   12 1
  22   10   11 2
  23   11   12 1
  24   11   42 1
  25   12   19 1
  26   14   15 1
  27   14   16 2
  28   15   26 ar
  29   15   30 ar
  30   17   43 1
  31   17   44 1
  32   17   45 1
  33   18   46 1
  34   18   47 1
  35   18   48 1
  36   19   20 ar
  37   19   24 ar
  38   20   21 ar
  39   20   49 1
  40   21   22 ar
  41   21   25 1
  42   22   23 ar
  43   22   50 1
  44   23   24 ar
  45   23   51 1
  46   24   52 1
  47   26   27 ar
  48   27   28 ar
  49   27   31 1
  50   28   29 ar
  51   28   53 1
  52   29   30 ar
  53   29   54 1
  54   30   55 1
  55   31   32 1
  56   31   35 1
  57   32   33 1
  58   32   56 1
  59   32   57 1
  60   33   34 1
  61   33   58 1
  62   33   59 1
  63   34   35 1
  64   34   60 1
  65   34   61 1
  66   35   62 1
  67   35   63 1

#	End of record

