#	Name: ASD01870173
#	Creating user name:	WinNT
#	Creation time:	15. 06. 2019 19:38

#	Modifying user name:	WinNT
#	Modification time:	15. 06. 2019 19:38

#	Program:	/corina/corina34_cracker 3.40 0067  02.08.2006

@<TRIPOS>MOLECULE
ASD01870173
  51   55    0    0    0
SMALL
NO_CHARGES


@<TRIPOS>ATOM
   1 C1             0.0361     1.3111    -0.0873 C.ar    
   2 C2             0.0706    -0.0816    -0.0699 C.ar    
   3 C3             1.2548    -0.7537    -0.0425 C.ar    
   4 C4             2.4621    -0.0370    -0.0313 C.ar    
   5 C5             2.4277     1.3818    -0.0490 C.ar    
   6 C6             1.1854     2.0401    -0.0772 C.ar    
   7 C7             3.7026    -0.7002    -0.0035 C.ar    
   8 C8             4.8574     0.0116     0.0064 C.ar    
   9 C9             4.8400     1.4203    -0.0105 C.ar    
  10 C10            3.6304     2.0966    -0.0385 C.ar    
  11 C11            5.9282     2.4171    -0.0052 C.2     
  12 N12            5.4218     3.6618    -0.0283 N.am    
  13 C13            3.9575     3.5686    -0.0509 C.3     
  14 C14            6.1623     4.8418    -0.0304 C.ar    
  15 N15            6.5857     5.3483    -1.1776 N.ar    
  16 C16            7.2891     6.4635    -1.2240 C.ar    
  17 C17            7.6106     7.1465    -0.0679 C.ar    
  18 C18            7.1853     6.6485     1.1564 C.ar    
  19 C19            6.4449     5.4799     1.1725 C.ar    
  20 C20            3.7487    -2.2063     0.0160 C.3     
  21 C21            3.6627    -2.7298    -1.3945 C.ar    
  22 C22            4.8166    -2.9381    -2.1369 C.ar    
  23 C23            4.6926    -3.4205    -3.4284 C.ar    
  24 C24            3.4253    -3.6782    -3.9347 C.ar    
  25 N25            2.3486    -3.4670    -3.1959 N.ar    
  26 C26            2.4351    -3.0129    -1.9602 C.ar    
  27 O27            7.1140     2.1503     0.0174 O.2     
  28 C28            5.9609     4.9003     2.4766 C.3     
  29 F29            6.4893     5.6397     3.5402 F       
  30 F30            4.5636     4.9535     2.5205 F       
  31 F31            6.3804     3.5697     2.5798 F       
  32 O32            3.2903    -4.1509    -5.1993 O.3     
  33 C33            1.9606    -4.3961    -5.6617 C.3     
  34 H34           -0.9164     1.8195    -0.1136 H       
  35 H35           -0.8558    -0.6367    -0.0781 H       
  36 H36            1.2652    -1.8335    -0.0289 H       
  37 H37            1.1435     3.1192    -0.0913 H       
  38 H38            5.8035    -0.5089     0.0278 H       
  39 H39            3.5663     4.0320    -0.9567 H       
  40 H40            3.5374     4.0534     0.8303 H       
  41 H41            7.6181     6.8470    -2.1786 H       
  42 H42            8.1871     8.0585    -0.1154 H       
  43 H43            7.4236     7.1639     2.0751 H       
  44 H44            4.6838    -2.5354     0.4693 H       
  45 H45            2.9092    -2.5880     0.5971 H       
  46 H46            5.7891    -2.7282    -1.7168 H       
  47 H47            5.5696    -3.5937    -4.0344 H       
  48 H48            1.5341    -2.8524    -1.3868 H       
  49 H49            1.9950    -4.7703    -6.6849 H       
  50 H50            1.4834    -5.1366    -5.0198 H       
  51 H51            1.3891    -3.4683    -5.6332 H       
@<TRIPOS>BOND
   1    1    2 ar
   2    1    6 ar
   3    1   34 1
   4    2    3 ar
   5    2   35 1
   6    3    4 ar
   7    3   36 1
   8    4    5 ar
   9    4    7 ar
  10    5    6 ar
  11    5   10 ar
  12    6   37 1
  13    7    8 ar
  14    7   20 1
  15    8    9 ar
  16    8   38 1
  17    9   10 ar
  18    9   11 1
  19   10   13 1
  20   11   12 am
  21   11   27 2
  22   12   13 1
  23   12   14 1
  24   13   39 1
  25   13   40 1
  26   14   15 ar
  27   14   19 ar
  28   15   16 ar
  29   16   17 ar
  30   16   41 1
  31   17   18 ar
  32   17   42 1
  33   18   19 ar
  34   18   43 1
  35   19   28 1
  36   20   21 1
  37   20   44 1
  38   20   45 1
  39   21   22 ar
  40   21   26 ar
  41   22   23 ar
  42   22   46 1
  43   23   24 ar
  44   23   47 1
  45   24   25 ar
  46   24   32 1
  47   25   26 ar
  48   26   48 1
  49   28   29 1
  50   28   30 1
  51   28   31 1
  52   32   33 1
  53   33   49 1
  54   33   50 1
  55   33   51 1

#	End of record

