#	Name: ASD03082004
#	Creating user name:	WinNT
#	Creation time:	15. 06. 2019 20:27

#	Modifying user name:	WinNT
#	Modification time:	15. 06. 2019 20:27

#	Program:	/corina/corina34_cracker 3.40 0067  02.08.2006

@<TRIPOS>MOLECULE
ASD03082004
  40   41    0    0    0
SMALL
NO_CHARGES


@<TRIPOS>ATOM
   1 C1             0.4320    -0.4723     0.2982 C.ar    
   2 C2             0.9626    -1.6842     0.7176 C.ar    
   3 C3             2.3187    -1.8265     0.9162 C.ar    
   4 C4             3.1664    -0.7465     0.6942 C.ar    
   5 C5             2.6236     0.4798     0.2686 C.ar    
   6 C6             1.2467     0.6019     0.0742 C.ar    
   7 N7             4.5283    -0.5731     0.7995 N.pl3   
   8 C8             4.8617     0.7093     0.4581 C.2     
   9 C9             3.7572     1.3969     0.1274 C.2     
  10 C10            3.6952     2.8387    -0.3067 C.3     
  11 C11            3.6910     2.9114    -1.8349 C.3     
  12 C12            6.2616     1.2674     0.4543 C.3     
  13 C13            6.5580     1.8711    -0.8943 C.2     
  14 C14            6.9807     3.1081    -0.9796 C.2     
  15 C15            6.3839     2.3450     1.5335 C.3     
  16 C16            7.2594     0.1435     0.7404 C.3     
  17 N17            3.7555     4.3165    -2.2584 N.3     
  18 C18            3.7533     4.4255    -3.7234 C.3     
  19 H19           -0.6327    -0.3786     0.1433 H       
  20 H20            0.3059    -2.5240     0.8905 H       
  21 H21            2.7219    -2.7735     1.2433 H       
  22 H22            0.8267     1.5418    -0.2525 H       
  23 H23            5.1576    -1.2579     1.0750 H       
  24 H24            2.7851     3.2961     0.0813 H       
  25 H25            4.5634     3.3722     0.0801 H       
  26 H26            4.5546     2.3739    -2.2266 H       
  27 H27            2.7767     2.4581    -2.2178 H       
  28 H28            6.4220     1.2839    -1.7905 H       
  29 H29            7.1932     3.5407    -1.9461 H       
  30 H30            7.1167     3.6953    -0.0834 H       
  31 H31            6.0773     1.9329     2.4949 H       
  32 H32            7.4189     2.6811     1.5957 H       
  33 H33            5.7426     3.1888     1.2787 H       
  34 H34            7.1575    -0.6343    -0.0164 H       
  35 H35            8.2733     0.5430     0.7166 H       
  36 H36            7.0584    -0.2789     1.7250 H       
  37 H37            3.0005     4.8508    -1.8550 H       
  38 H38            4.6174     3.8985    -4.1282 H       
  39 H39            2.8394     3.9827    -4.1193 H       
  40 H40            3.8017     5.4761    -4.0097 H       
@<TRIPOS>BOND
   1    1    2 ar
   2    1    6 ar
   3    1   19 1
   4    2    3 ar
   5    2   20 1
   6    3    4 ar
   7    3   21 1
   8    4    5 ar
   9    4    7 1
  10    5    6 ar
  11    5    9 1
  12    6   22 1
  13    7    8 1
  14    7   23 1
  15    8    9 2
  16    8   12 1
  17    9   10 1
  18   10   11 1
  19   10   24 1
  20   10   25 1
  21   11   17 1
  22   11   26 1
  23   11   27 1
  24   12   13 1
  25   12   15 1
  26   12   16 1
  27   13   14 2
  28   13   28 1
  29   14   29 1
  30   14   30 1
  31   15   31 1
  32   15   32 1
  33   15   33 1
  34   16   34 1
  35   16   35 1
  36   16   36 1
  37   17   18 1
  38   17   37 1
  39   18   38 1
  40   18   39 1
  41   18   40 1

#	End of record

