#	Name: ASD01328035
#	Creating user name:	WinNT
#	Creation time:	15. 06. 2019 19:16

#	Modifying user name:	WinNT
#	Modification time:	15. 06. 2019 19:16

#	Program:	/corina/corina34_cracker 3.40 0067  02.08.2006

@<TRIPOS>MOLECULE
ASD01328035
  31   32    0    0    0
SMALL
NO_CHARGES


@<TRIPOS>ATOM
   1 O1            -0.0161     1.3394     0.0094 O.3     
   2 C2             0.0021    -0.0041     0.0020 C.2     
   3 N3             1.2501    -0.3775    -0.0119 N.2     
   4 N4             2.0071     0.6630    -0.0135 N.2     
   5 C5             1.2677     1.7355    -0.0007 C.2     
   6 C6             1.7618     3.1593     0.0015 C.3     
   7 C7            -1.2005    -0.9123     0.0094 C.3     
   8 C8            -1.3969    -1.5106    -1.3860 C.3     
   9 O9            -1.6586    -0.4632    -2.3222 O.3     
  10 C10           -2.5839    -2.4784    -1.3556 C.3     
  11 O11           -2.7291    -3.0970    -2.6355 O.3     
  12 C12           -2.3262    -3.5519    -0.2938 C.3     
  13 O13           -3.4591    -4.4184    -0.2060 O.3     
  14 C14           -2.0938    -2.8748     1.0594 C.3     
  15 O15           -0.9964    -1.9655     0.9534 O.3     
  16 C16           -1.7762    -3.9371     2.1137 C.3     
  17 O17           -1.6743    -3.3183     3.3977 O.3     
  18 H18            1.8905     3.4976     1.0296 H       
  19 H19            2.7168     3.2132    -0.5211 H       
  20 H20            1.0353     3.7967    -0.5026 H       
  21 H21           -2.0860    -0.3410     0.2879 H       
  22 H22           -0.4957    -2.0473    -1.6824 H       
  23 H23           -0.9491     0.1903    -2.3898 H       
  24 H24           -3.4941    -1.9314    -1.1096 H       
  25 H25           -2.8882    -2.4740    -3.3578 H       
  26 H26           -1.4448    -4.1315    -0.5683 H       
  27 H27           -3.6678    -4.8778    -1.0309 H       
  28 H28           -2.9910    -2.3291     1.3516 H       
  29 H29           -2.5726    -4.6811     2.1311 H       
  30 H30           -0.8314    -4.4219     1.8679 H       
  31 H31           -1.4740    -3.9338     4.1161 H       
@<TRIPOS>BOND
   1    1    2 1
   2    1    5 1
   3    2    3 2
   4    2    7 1
   5    3    4 1
   6    4    5 2
   7    5    6 1
   8    6   18 1
   9    6   19 1
  10    6   20 1
  11    7    8 1
  12    7   15 1
  13    7   21 1
  14    8    9 1
  15    8   10 1
  16    8   22 1
  17    9   23 1
  18   10   11 1
  19   10   12 1
  20   10   24 1
  21   11   25 1
  22   12   13 1
  23   12   14 1
  24   12   26 1
  25   13   27 1
  26   14   15 1
  27   14   16 1
  28   14   28 1
  29   16   17 1
  30   16   29 1
  31   16   30 1
  32   17   31 1

#	End of record

