#	Name: ASD03092201
#	Creating user name:	WinNT
#	Creation time:	15. 06. 2019 20:32

#	Modifying user name:	WinNT
#	Modification time:	15. 06. 2019 20:32

#	Program:	/corina/corina34_cracker 3.40 0067  02.08.2006

@<TRIPOS>MOLECULE
ASD03092201
  51   53    0    0    0
SMALL
NO_CHARGES


@<TRIPOS>ATOM
   1 C1             0.1662     1.5217     0.5244 C.ar    
   2 N2             0.3703     0.4455    -0.2103 N.ar    
   3 C3            -0.6036    -0.1389    -0.8815 C.ar    
   4 C4            -1.8896     0.3590    -0.8414 C.ar    
   5 C5            -2.1520     1.4995    -0.0744 C.ar    
   6 C6            -1.0906     2.0826     0.6258 C.ar    
   7 C7            -3.5158     2.0698    -0.0015 C.2     
   8 N8            -3.8250     3.2934     0.3779 N.2     
   9 C9            -5.1467     3.4618     0.3206 C.2     
  10 N10           -5.7028     2.3473    -0.0967 N.2     
  11 N11           -4.6633     1.4294    -0.3179 N.pl3   
  12 C12           -4.7968     0.0490    -0.7898 C.3     
  13 C13           -4.7728     0.0283    -2.3195 C.3     
  14 C14           -4.7866    -1.4208    -2.8103 C.3     
  15 O15           -5.9216     0.7128    -2.8232 O.3     
  16 C16           -4.6370    -1.4450    -4.3327 C.3     
  17 N17           -5.8295     4.6339     0.6513 N.pl3   
  18 C18           -5.1344     5.7177     1.1976 C.ar    
  19 C19           -5.6263     7.0073     1.0448 C.ar    
  20 C20           -4.9389     8.0773     1.5848 C.ar    
  21 C21           -3.7599     7.8656     2.2777 C.ar    
  22 C22           -3.2655     6.5788     2.4318 C.ar    
  23 C23           -3.9542     5.5049     1.8984 C.ar    
  24 C24           -4.6508    -2.8941    -4.8235 C.3     
  25 C25           -4.5012    -2.9184    -6.3460 C.3     
  26 C26            1.3199     2.1436     1.2683 C.3     
  27 F27           -2.1138     6.3741     3.1078 F       
  28 F28           -3.0893     8.9136     2.8044 F       
  29 H29           -0.3912    -1.0187    -1.4707 H       
  30 H30           -2.6819    -0.1241    -1.3939 H       
  31 H31           -1.2506     2.9636     1.2297 H       
  32 H32           -3.9698    -0.5480    -0.4054 H       
  33 H33           -5.7402    -0.3665    -0.4356 H       
  34 H34           -3.8695     0.5239    -2.6754 H       
  35 H35           -3.9599    -1.9664    -2.3552 H       
  36 H36           -5.7296    -1.8902    -2.5303 H       
  37 H37           -6.7632     0.3256    -2.5458 H       
  38 H38           -5.4637    -0.8994    -4.7878 H       
  39 H39           -3.6940    -0.9756    -4.6127 H       
  40 H40           -6.7859     4.6966     0.5022 H       
  41 H41           -6.5460     7.1740     0.5036 H       
  42 H42           -5.3219     9.0801     1.4657 H       
  43 H43           -3.5699     4.5027     2.0183 H       
  44 H44           -3.8242    -3.4397    -4.3685 H       
  45 H45           -5.5939    -3.3636    -4.5436 H       
  46 H46           -5.3279    -2.3727    -6.8010 H       
  47 H47           -3.5582    -2.4489    -6.6260 H       
  48 H48           -4.5111    -3.9507    -6.6956 H       
  49 H49            1.8023     2.8876     0.6342 H       
  50 H50            0.9513     2.6231     2.1751 H       
  51 H51            2.0406     1.3701     1.5335 H       
@<TRIPOS>BOND
   1    1    2 ar
   2    1   26 1
   3    1    6 ar
   4    2    3 ar
   5    3    4 ar
   6    3   29 1
   7    4    5 ar
   8    4   30 1
   9    5    6 ar
  10    5    7 1
  11    6   31 1
  12    7    8 2
  13    7   11 1
  14    8    9 1
  15    9   10 2
  16    9   17 1
  17   10   11 1
  18   11   12 1
  19   12   13 1
  20   12   32 1
  21   12   33 1
  22   13   14 1
  23   13   15 1
  24   13   34 1
  25   14   16 1
  26   14   35 1
  27   14   36 1
  28   15   37 1
  29   16   24 1
  30   16   38 1
  31   16   39 1
  32   17   18 1
  33   17   40 1
  34   18   19 ar
  35   18   23 ar
  36   19   20 ar
  37   19   41 1
  38   20   21 ar
  39   20   42 1
  40   21   22 ar
  41   21   28 1
  42   22   23 ar
  43   22   27 1
  44   23   43 1
  45   24   25 1
  46   24   44 1
  47   24   45 1
  48   25   46 1
  49   25   47 1
  50   25   48 1
  51   26   49 1
  52   26   50 1
  53   26   51 1

#	End of record

