#	Name: ASD01030027
#	Creating user name:	WinNT
#	Creation time:	15. 06. 2019 18:58

#	Modifying user name:	WinNT
#	Modification time:	15. 06. 2019 18:58

#	Program:	/corina/corina34_cracker 3.40 0067  02.08.2006

@<TRIPOS>MOLECULE
ASD01030027
  29   28    0    0    0
SMALL
NO_CHARGES


@<TRIPOS>ATOM
   1 C1            -0.0226     1.8187     0.0120 C.3     
   2 P2             0.0021    -0.0041     0.0020 P.3     
   3 O3             0.7808    -0.5374     1.3064 O.3     
   4 O4            -1.5084    -0.5613     0.0134 O.3     
   5 O5             0.6948    -0.4814    -1.2156 O.2     
   6 S6             1.6792     2.4466    -0.0008 S.3     
   7 C7             2.2040     2.1679    -1.7147 C.3     
   8 C8             3.6441     2.6531    -1.8924 C.3     
   9 C9             1.0601    -1.9201     1.5349 C.3     
  10 C10            1.8086    -2.0769     2.8601 C.3     
  11 C11           -1.8263    -1.9503    -0.0954 C.3     
  12 C12           -3.3450    -2.1308    -0.0507 C.3     
  13 H13           -0.5498     2.1798    -0.8710 H       
  14 H14           -0.5328     2.1703     0.9088 H       
  15 H15            2.1484     1.1035    -1.9432 H       
  16 H16            1.5490     2.7190    -2.3895 H       
  17 H17            3.6997     3.7174    -1.6640 H       
  18 H18            4.2991     2.1019    -1.2177 H       
  19 H19            3.9595     2.4856    -2.9223 H       
  20 H20            0.1245    -2.4775     1.5779 H       
  21 H21            1.6757    -2.3055     0.7221 H       
  22 H22            2.0217    -3.1316     3.0344 H       
  23 H23            2.7443    -1.5194     2.8171 H       
  24 H24            1.1930    -1.6915     3.6728 H       
  25 H25           -1.4420    -2.3381    -1.0388 H       
  26 H26           -1.3713    -2.4932     0.7330 H       
  27 H27           -3.7294    -1.7429     0.8926 H       
  28 H28           -3.8000    -1.5879    -0.8791 H       
  29 H29           -3.5875    -3.1902    -0.1338 H       
@<TRIPOS>BOND
   1    1    2 1
   2    1    6 1
   3    1   13 1
   4    1   14 1
   5    2    3 1
   6    2    4 1
   7    2    5 2
   8    3    9 1
   9    4   11 1
  10    6    7 1
  11    7    8 1
  12    7   15 1
  13    7   16 1
  14    8   17 1
  15    8   18 1
  16    8   19 1
  17    9   10 1
  18    9   20 1
  19    9   21 1
  20   10   22 1
  21   10   23 1
  22   10   24 1
  23   11   12 1
  24   11   25 1
  25   11   26 1
  26   12   27 1
  27   12   28 1
  28   12   29 1

#	End of record

