#	Name: ASD09900023
#	Creating user name:	WinNT
#	Creation time:	15. 06. 2019 21:24

#	Modifying user name:	WinNT
#	Modification time:	15. 06. 2019 21:24

#	Program:	/corina/corina34_cracker 3.40 0067  02.08.2006

@<TRIPOS>MOLECULE
ASD09900023
  29   30    0    0    0
SMALL
NO_CHARGES


@<TRIPOS>ATOM
   1 C1            -0.0166     1.3726     0.0096 C.ar    
   2 C2             0.0021    -0.0041     0.0020 C.ar    
   3 C3             1.2089    -0.6914    -0.0127 C.ar    
   4 C4             2.4053    -0.0103    -0.0200 C.ar    
   5 C5             2.4140     1.3818    -0.0131 C.ar    
   6 C6             1.1932     2.0836     0.0019 C.ar    
   7 N7             3.4242     2.3148    -0.0179 N.pl3   
   8 C8             2.8630     3.5779    -0.0068 C.2     
   9 C9             1.5090     3.4632     0.0067 C.2     
  10 C10            3.6113     4.8431    -0.0080 C.2     
  11 O11            3.0141     5.9030     0.0025 O.2     
  12 N12            4.9589     4.8290    -0.0209 N.am    
  13 C13            5.7047     6.0899    -0.0221 C.3     
  14 C14            5.8697     6.5863     1.4157 C.3     
  15 C15            7.0837     5.8662    -0.6459 C.3     
  16 F16           -1.1937     2.0356     0.0188 F       
  17 H17           -0.9279    -0.5532     0.0079 H       
  18 H18            1.2087    -1.7714    -0.0182 H       
  19 H19            3.3373    -0.5560    -0.0308 H       
  20 H20            4.3741     2.1188    -0.0272 H       
  21 H21            0.8009     4.2785     0.0183 H       
  22 H22            5.4350     3.9839    -0.0293 H       
  23 H23            5.1595     6.8339    -0.6030 H       
  24 H24            4.8872     6.7457     1.8601 H       
  25 H25            6.4149     5.8423     1.9966 H       
  26 H26            6.4246     7.5245     1.4148 H       
  27 H27            6.9661     5.5126    -1.6702 H       
  28 H28            7.6386     6.8044    -0.6468 H       
  29 H29            7.6289     5.1223    -0.0650 H       
@<TRIPOS>BOND
   1    1    2 ar
   2    1    6 ar
   3    1   16 1
   4    2    3 ar
   5    2   17 1
   6    3    4 ar
   7    3   18 1
   8    4    5 ar
   9    4   19 1
  10    5    7 1
  11    5    6 ar
  12    6    9 1
  13    7    8 1
  14    7   20 1
  15    8    9 2
  16    8   10 1
  17    9   21 1
  18   10   11 2
  19   10   12 am
  20   12   13 1
  21   12   22 1
  22   13   14 1
  23   13   15 1
  24   13   23 1
  25   14   24 1
  26   14   25 1
  27   14   26 1
  28   15   27 1
  29   15   28 1
  30   15   29 1

#	End of record

