#	Name: ASD05720150
#	Creating user name:	WinNT
#	Creation time:	15. 06. 2019 21:01

#	Modifying user name:	WinNT
#	Modification time:	15. 06. 2019 21:01

#	Program:	/corina/corina34_cracker 3.40 0067  02.08.2006

@<TRIPOS>MOLECULE
ASD05720150
  23   22    0    0    0
SMALL
NO_CHARGES


@<TRIPOS>ATOM
   1 C1            -0.0187     1.5258     0.0104 C.3     
   2 C2             0.0021    -0.0041     0.0020 C.3     
   3 C3            -1.4075    -0.5249    -0.1112 C.ar    
   4 C4            -1.8901    -0.9511    -1.3347 C.ar    
   5 C5            -3.1842    -1.4295    -1.4394 C.ar    
   6 C6            -3.9960    -1.4809    -0.3161 C.ar    
   7 C7            -3.5100    -1.0536     0.9070 C.ar    
   8 C8            -2.2146    -0.5814     1.0094 C.ar    
   9 F9            -5.2600    -1.9471    -0.4160 F       
  10 F10           -3.6566    -1.8457    -2.6348 F       
  11 N11            0.6059    -0.4925     1.2489 N.3     
  12 O12            1.3220     2.0204     0.0003 O.3     
  13 H13           -0.5459     1.8868    -0.8726 H       
  14 H14           -0.5289     1.8773     0.9072 H       
  15 H15            0.5883    -0.3548    -0.8473 H       
  16 H16           -1.2570    -0.9102    -2.2088 H       
  17 H17           -4.1413    -1.0928     1.7824 H       
  18 H18           -1.8345    -0.2522     1.9652 H       
  19 H19            1.5722    -0.2103     1.3175 H       
  20 H20            0.0803    -0.1804     2.0517 H       
  21 H21            1.3852     2.9853     0.0049 H       
  22 Cl22           6.5722     7.9853     7.0517 Cl      
  23 H23            6.5722     9.3553     7.0517 H       
@<TRIPOS>BOND
   1    1    2 1
   2    1   12 1
   3    1   13 1
   4    1   14 1
   5    2    3 1
   6    2   11 1
   7    2   15 1
   8    3    4 ar
   9    3    8 ar
  10    4    5 ar
  11    4   16 1
  12    5    6 ar
  13    5   10 1
  14    6    7 ar
  15    6    9 1
  16    7    8 ar
  17    7   17 1
  18    8   18 1
  19   11   19 1
  20   11   20 1
  21   12   21 1
  22   22   23 1

#	End of record

