#	Name: ASD01915332
#	Creating user name:	WinNT
#	Creation time:	15. 06. 2019 20:05

#	Modifying user name:	WinNT
#	Modification time:	15. 06. 2019 20:05

#	Program:	/corina/corina34_cracker 3.40 0067  02.08.2006

@<TRIPOS>MOLECULE
ASD01915332
  35   37    0    0    0
SMALL
NO_CHARGES


@<TRIPOS>ATOM
   1 C1            -0.0045     1.3247    -0.0199 C.2     
   2 N2             0.0095    -0.0259    -0.0292 N.pl3   
   3 C3            -1.3055    -0.4568    -0.0130 C.2     
   4 C4            -2.0824     0.6207     0.0055 C.2     
   5 O5            -1.2939     1.7192     0.0061 O.3     
   6 N6             1.2474     1.7379    -0.0352 N.2     
   7 C7             2.0673     0.6884    -0.0542 C.2     
   8 N8             1.3555    -0.4118    -0.0513 N.2     
   9 C9            -3.5893     0.6190     0.0265 C.3     
  10 C10           -1.7721    -1.8897    -0.0167 C.3     
  11 C11           -4.0817     1.2187     1.3451 C.3     
  12 O12           -4.0897     1.4117    -1.0824 O.3     
  13 C13           -5.2800     1.0547    -1.6009 C.2     
  14 N14           -5.8014     1.7488    -2.6318 N.am    
  15 O15           -5.8840     0.1067    -1.1393 O.2     
  16 C16           -6.9816     1.3117    -3.2440 C.ar    
  17 C17           -7.8957     2.2359    -3.7324 C.ar    
  18 C18           -9.0592     1.8013    -4.3365 C.ar    
  19 C19           -9.3143     0.4475    -4.4553 C.ar    
  20 C20           -8.4060    -0.4754    -3.9700 C.ar    
  21 C21           -7.2382    -0.0473    -3.3695 C.ar    
  22 Cl22           3.8013     0.7656    -0.0797 Cl      
  23 H23           -3.9528    -0.4045    -0.0653 H       
  24 H24           -0.9075    -2.5533    -0.0338 H       
  25 H25           -2.3604    -2.0826     0.8804 H       
  26 H26           -2.3858    -2.0698    -0.8993 H       
  27 H27           -3.7182     2.2422     1.4370 H       
  28 H28           -5.1715     1.2175     1.3603 H       
  29 H29           -3.7060     0.6237     2.1776 H       
  30 H30           -5.3587     2.5513    -2.9494 H       
  31 H31           -7.6971     3.2935    -3.6396 H       
  32 H32           -9.7707     2.5197    -4.7162 H       
  33 H33          -10.2250     0.1101    -4.9277 H       
  34 H34           -8.6081    -1.5321    -4.0642 H       
  35 H35           -6.5291    -0.7685    -2.9910 H       
@<TRIPOS>BOND
   1    1    2 1
   2    1    6 2
   3    1    5 1
   4    2    3 1
   5    2    8 1
   6    3    4 2
   7    3   10 1
   8    4    5 1
   9    4    9 1
  10    6    7 1
  11    7    8 2
  12    7   22 1
  13    9   11 1
  14    9   12 1
  15    9   23 1
  16   10   24 1
  17   10   25 1
  18   10   26 1
  19   11   27 1
  20   11   28 1
  21   11   29 1
  22   12   13 1
  23   13   14 am
  24   13   15 2
  25   14   16 1
  26   14   30 1
  27   16   17 ar
  28   16   21 ar
  29   17   18 ar
  30   17   31 1
  31   18   19 ar
  32   18   32 1
  33   19   20 ar
  34   19   33 1
  35   20   21 ar
  36   20   34 1
  37   21   35 1

#	End of record

