#	Name: ASD03091826
#	Creating user name:	WinNT
#	Creation time:	15. 06. 2019 20:31

#	Modifying user name:	WinNT
#	Modification time:	15. 06. 2019 20:31

#	Program:	/corina/corina34_cracker 3.40 0067  02.08.2006

@<TRIPOS>MOLECULE
ASD03091826
  56   60    0    0    0
SMALL
NO_CHARGES


@<TRIPOS>ATOM
   1 C1            -0.0150     1.3951     0.0120 C.ar    
   2 C2            -1.2495     2.0686     0.0343 C.ar    
   3 C3            -2.4497     1.3140     0.0356 C.ar    
   4 C4            -2.3931    -0.0936     0.0126 C.ar    
   5 C5            -1.1946    -0.7309    -0.0086 C.ar    
   6 C6             0.0034    -0.0000    -0.0094 C.ar    
   7 O7             1.1602     2.0650     0.0163 O.3     
   8 C8             2.2582     1.4564     0.6964 C.3     
   9 N9             2.4079     0.0581     0.2907 N.am    
  10 C10            1.3159    -0.6756    -0.0259 C.2     
  11 C11           -3.6690    -0.8955     0.0121 C.3     
  12 N12           -4.2246    -0.9307    -1.3473 N.3     
  13 C13           -3.3410    -1.6696    -2.2581 C.3     
  14 C14           -5.5799    -1.4960    -1.3474 C.3     
  15 C15           -6.1809    -1.3835    -2.7503 C.3     
  16 C16           -5.2927    -2.1386    -3.7429 C.3     
  17 C17           -3.8752    -1.5623    -3.6882 C.3     
  18 O18            1.4125    -1.8531    -0.3143 O.2     
  19 C19            3.7405    -0.5472     0.2270 C.3     
  20 C20           -3.6823     1.9866     0.0605 C.ar    
  21 C21           -1.3165     3.4708     0.0558 C.ar    
  22 C22            4.5993     0.1760    -0.8309 C.3     
  23 C23            4.4635    -0.3731     1.5741 C.3     
  24 C24            5.7365     0.4499     1.2878 C.3     
  25 C25            5.4075     1.2169    -0.0170 C.3     
  26 O26            4.8163    -1.6504     2.1089 O.3     
  27 C27           -2.5300     4.0886     0.0794 C.ar    
  28 C28           -3.7096     3.3479     0.0815 C.ar    
  29 F29           -5.2593    -3.4951    -3.4023 F       
  30 F30           -5.8079    -1.9937    -5.0355 F       
  31 H31           -1.1629    -1.8103    -0.0259 H       
  32 H32            3.1731     1.9991     0.4586 H       
  33 H33            2.0840     1.5015     1.7715 H       
  34 H34           -3.4595    -1.9119     0.3454 H       
  35 H35           -4.3891    -0.4329     0.6871 H       
  36 H36           -2.3372    -1.2471    -2.2126 H       
  37 H37           -3.3074    -2.7177    -1.9607 H       
  38 H38           -5.5359    -2.5450    -1.0543 H       
  39 H39           -6.2024    -0.9474    -0.6406 H       
  40 H40           -7.1809    -1.8173    -2.7537 H       
  41 H41           -6.2381    -0.3338    -3.0386 H       
  42 H42           -3.8960    -0.5154    -3.9912 H       
  43 H43           -3.2277    -2.1238    -4.3616 H       
  44 H44            3.6579    -1.6060    -0.0184 H       
  45 H45           -4.6055     1.4261     0.0625 H       
  46 H46           -0.4095     4.0571     0.0539 H       
  47 H47            5.2705    -0.5276    -1.3234 H       
  48 H48            3.9636     0.6743    -1.5627 H       
  49 H49            3.8229     0.1618     2.2753 H       
  50 H50            5.9306     1.1480     2.1021 H       
  51 H51            6.5913    -0.2095     1.1375 H       
  52 H52            6.3211     1.4938    -0.5431 H       
  53 H53            4.8006     2.0972     0.1950 H       
  54 H54            5.2757    -1.6077     2.9588 H       
  55 H55           -2.5783     5.1673     0.0966 H       
  56 H56           -4.6598     3.8609     0.1002 H       
@<TRIPOS>BOND
   1    1    6 ar
   2    1    7 1
   3    1    2 ar
   4    2    3 ar
   5    2   21 ar
   6    3    4 ar
   7    3   20 ar
   8    4    5 ar
   9    4   11 1
  10    5    6 ar
  11    5   31 1
  12    6   10 1
  13    7    8 1
  14    8    9 1
  15    8   32 1
  16    8   33 1
  17    9   10 am
  18    9   19 1
  19   10   18 2
  20   11   12 1
  21   11   34 1
  22   11   35 1
  23   12   14 1
  24   12   13 1
  25   13   17 1
  26   13   36 1
  27   13   37 1
  28   14   15 1
  29   14   38 1
  30   14   39 1
  31   15   16 1
  32   15   40 1
  33   15   41 1
  34   16   29 1
  35   16   30 1
  36   16   17 1
  37   17   42 1
  38   17   43 1
  39   19   23 1
  40   19   22 1
  41   19   44 1
  42   20   28 ar
  43   20   45 1
  44   21   27 ar
  45   21   46 1
  46   22   25 1
  47   22   47 1
  48   22   48 1
  49   23   24 1
  50   23   26 1
  51   23   49 1
  52   24   25 1
  53   24   50 1
  54   24   51 1
  55   25   52 1
  56   25   53 1
  57   26   54 1
  58   27   28 ar
  59   27   55 1
  60   28   56 1

#	End of record

