#	Name: ASD01911879
#	Creating user name:	WinNT
#	Creation time:	15. 06. 2019 19:58

#	Modifying user name:	WinNT
#	Modification time:	15. 06. 2019 19:58

#	Program:	/corina/corina34_cracker 3.40 0067  02.08.2006

@<TRIPOS>MOLECULE
ASD01911879
  40   42    0    0    0
SMALL
NO_CHARGES


@<TRIPOS>ATOM
   1 C1            -1.5608     1.3997     0.7223 C.ar    
   2 C2            -1.3476     0.0293     0.8376 C.ar    
   3 C3            -1.2731    -0.5369     2.1019 C.ar    
   4 N4            -1.4023     0.2086     3.1815 N.ar    
   5 C5            -1.6050     1.5093     3.1070 C.ar    
   6 C6            -1.6904     2.1455     1.8825 C.ar    
   7 O7            -1.2148    -0.7433    -0.2725 O.3     
   8 C8            -1.0117    -2.0760    -0.1017 C.ar    
   9 C9            -2.0751    -2.9034     0.2329 C.ar    
  10 C10           -1.8701    -4.2586     0.4074 C.ar    
  11 C11           -0.6066    -4.7948     0.2492 C.ar    
  12 C12            0.4613    -3.9719    -0.0855 C.ar    
  13 C13            0.2562    -2.6110    -0.2669 C.ar    
  14 N14            1.7402    -4.5146    -0.2451 N.am    
  15 C15            2.8267    -3.7860     0.0793 C.2     
  16 C16            4.1800    -4.3189    -0.1856 C.ar    
  17 O17            2.6939    -2.6908     0.5897 O.2     
  18 C18            4.3344    -5.5771    -0.7720 C.ar    
  19 C19            5.5977    -6.0768    -1.0198 C.ar    
  20 C20            6.7161    -5.3376    -0.6903 C.ar    
  21 C21            6.5764    -4.0772    -0.1031 C.ar    
  22 C22            5.3043    -3.5645     0.1439 C.ar    
  23 C23            7.7374    -3.3118     0.2386 C.1     
  24 C24           -3.0267    -5.1534     0.7715 C.3     
  25 F25           -4.1934    -4.3885     0.8754 F       
  26 F26           -3.1936    -6.1263    -0.2199 F       
  27 F27           -2.7666    -5.7762     1.9970 F       
  28 N28            8.6585    -2.7046     0.5096 N.1     
  29 H29           -1.6192     1.8708    -0.2477 H       
  30 H30           -1.1079    -1.5994     2.2027 H       
  31 H31           -1.7060     2.0855     4.0149 H       
  32 H32           -1.8563     3.2115     1.8310 H       
  33 H33           -3.0639    -2.4872     0.3572 H       
  34 H34           -0.4491    -5.8544     0.3862 H       
  35 H35            1.0847    -1.9689    -0.5271 H       
  36 H36            1.8454    -5.4153    -0.5893 H       
  37 H37            3.4637    -6.1608    -1.0320 H       
  38 H38            5.7113    -7.0504    -1.4731 H       
  39 H39            7.7013    -5.7345    -0.8865 H       
  40 H40            5.1904    -2.5910     0.5975 H       
@<TRIPOS>BOND
   1    1    2 ar
   2    1    6 ar
   3    1   29 1
   4    2    3 ar
   5    2    7 1
   6    3    4 ar
   7    3   30 1
   8    4    5 ar
   9    5    6 ar
  10    5   31 1
  11    6   32 1
  12    7    8 1
  13    8    9 ar
  14    8   13 ar
  15    9   10 ar
  16    9   33 1
  17   10   11 ar
  18   10   24 1
  19   11   12 ar
  20   11   34 1
  21   12   13 ar
  22   12   14 1
  23   13   35 1
  24   14   15 am
  25   14   36 1
  26   15   16 1
  27   15   17 2
  28   16   18 ar
  29   16   22 ar
  30   18   19 ar
  31   18   37 1
  32   19   20 ar
  33   19   38 1
  34   20   21 ar
  35   20   39 1
  36   21   22 ar
  37   21   23 1
  38   22   40 1
  39   23   28 3
  40   24   25 1
  41   24   26 1
  42   24   27 1

#	End of record

