#	Name: ASD01028817
#	Creating user name:	WinNT
#	Creation time:	15. 06. 2019 18:58

#	Modifying user name:	WinNT
#	Modification time:	15. 06. 2019 18:58

#	Program:	/corina/corina34_cracker 3.40 0067  02.08.2006

@<TRIPOS>MOLECULE
ASD01028817
  37   40    0    0    0
SMALL
NO_CHARGES


@<TRIPOS>ATOM
   1 N1            -0.0157     1.3087     0.0092 N.ar    
   2 C2             0.0021    -0.0041     0.0020 C.ar    
   3 C3             1.1907    -0.7201    -0.0127 C.ar    
   4 C4             2.4006    -0.0433    -0.0206 C.ar    
   5 C5             2.3687     1.3714    -0.0131 C.ar    
   6 C6             3.5506     2.1254    -0.0203 C.ar    
   7 C7             3.4870     3.4850    -0.0129 C.ar    
   8 C8             2.2539     4.1428     0.0023 C.ar    
   9 C9             1.0760     3.4303     0.0097 C.ar    
  10 C10            1.1139     2.0270     0.0023 C.ar    
  11 N11            3.6044    -0.7312    -0.0349 N.pl3   
  12 O12            2.2174     5.5006     0.0103 O.3     
  13 C13            3.4726     6.1835     0.0025 C.3     
  14 C14            3.6110    -2.1962    -0.0418 C.3     
  15 C15            7.0105    -3.3818     0.5385 C.2     
  16 C16            8.0275    -3.7371     1.4431 C.2     
  17 C17            7.7824    -3.6534     2.7794 C.2     
  18 C18            6.5313    -3.2182     3.2405 C.2     
  19 N19            5.5832    -2.8869     2.4029 N.2     
  20 N20            5.7963    -2.9594     1.0249 N.pl3   
  21 N21            5.7548    -2.9393    -1.1226 N.2     
  22 N22            6.9279    -3.3458    -0.7815 N.2     
  23 C23            5.0339    -2.6921    -0.0572 C.2     
  24 Cl24           6.2370    -3.1178     4.9484 Cl      
  25 H25           -0.9346    -0.5417     0.0081 H       
  26 H26            1.1733    -1.8000    -0.0176 H       
  27 H27            4.5095     1.6285    -0.0314 H       
  28 H28            4.3999     4.0621    -0.0185 H       
  29 H29            0.1282     3.9480     0.0211 H       
  30 H30            4.4423    -0.2424    -0.0402 H       
  31 H31            4.0290     5.9108    -0.8943 H       
  32 H32            3.3008     7.2598     0.0102 H       
  33 H33            4.0456     5.9007     0.8855 H       
  34 H34            3.1069    -2.5660     0.8511 H       
  35 H35            3.0906    -2.5576    -0.9288 H       
  36 H36            8.9889    -4.0719     1.0824 H       
  37 H37            8.5531    -3.9231     3.4863 H       
@<TRIPOS>BOND
   1    1    2 ar
   2    1   10 ar
   3    2    3 ar
   4    2   25 1
   5    3    4 ar
   6    3   26 1
   7    4    5 ar
   8    4   11 1
   9    5    6 ar
  10    5   10 ar
  11    6    7 ar
  12    6   27 1
  13    7    8 ar
  14    7   28 1
  15    8    9 ar
  16    8   12 1
  17    9   10 ar
  18    9   29 1
  19   11   14 1
  20   11   30 1
  21   12   13 1
  22   13   31 1
  23   13   32 1
  24   13   33 1
  25   14   23 1
  26   14   34 1
  27   14   35 1
  28   15   16 1
  29   15   20 1
  30   15   22 2
  31   16   17 2
  32   16   36 1
  33   17   18 1
  34   17   37 1
  35   18   19 2
  36   18   24 1
  37   19   20 1
  38   20   23 1
  39   21   22 1
  40   21   23 2

#	End of record

