#	Name: ASD05430027
#	Creating user name:	WinNT
#	Creation time:	15. 06. 2019 20:59

#	Modifying user name:	WinNT
#	Modification time:	15. 06. 2019 20:59

#	Program:	/corina/corina34_cracker 3.40 0067  02.08.2006

@<TRIPOS>MOLECULE
ASD05430027
  63   69    0    0    0
SMALL
NO_CHARGES


@<TRIPOS>ATOM
   1 C1             0.0718     1.1591     0.4494 C.ar    
   2 C2             0.0167    -0.0118    -0.3163 C.ar    
   3 C3             1.1433    -0.4697    -0.9832 C.ar    
   4 C4             2.3325     0.2213    -0.9015 C.ar    
   5 C5             2.4022     1.3911    -0.1361 C.ar    
   6 C6             1.2693     1.8468     0.5361 C.ar    
   7 C7             4.8692    -0.0319     0.1671 C.3     
   8 C8             4.8361     1.4743     0.0341 C.2     
   9 C9             3.6675     2.1376    -0.0414 C.2     
  10 C10            6.2111    -0.4780     0.7377 C.3     
  11 C11            6.8861     0.5488     1.6453 C.3     
  12 N12            7.1056     1.7796     0.8850 N.pl3   
  13 C13            6.1211     2.1942    -0.0098 C.2     
  14 N14           -1.1853    -0.7265    -0.4092 N.pl3   
  15 C15           -1.9752    -1.1158     0.6250 C.2     
  16 C16           -1.7889    -1.1595    -1.5613 C.2     
  17 C17           -2.9159    -1.7991    -1.1946 C.2     
  18 N18           -3.0047    -1.7574     0.1431 N.2     
  19 C19           -3.9081    -2.4459    -2.1264 C.3     
  20 C20           -0.3073     2.6727     2.1155 C.3     
  21 O21           -0.9091     1.7834     1.1592 O.3     
  22 C22            8.3117     2.5909     1.0434 C.3     
  23 C23            8.7017     3.1472    -0.3307 C.3     
  24 O24            7.5902     3.8129    -0.9214 O.3     
  25 N25            6.3469     3.1543    -0.8456 N.2     
  26 C26            8.0374     3.7287     1.9928 C.ar    
  27 C27            8.9941     4.1019     2.9184 C.ar    
  28 C28            8.7439     5.1454     3.7892 C.ar    
  29 C29            7.5344     5.8172     3.7344 C.ar    
  30 C30            6.5770     5.4425     2.8070 C.ar    
  31 C31            6.8315     4.4021     1.9337 C.ar    
  32 F32            7.2885     6.8371     4.5855 F       
  33 C33            6.1794    -1.8920     1.3399 C.3     
  34 O34            7.4355    -2.0856     0.6581 O.3     
  35 C35            7.1590    -1.0641    -0.3218 C.3     
  36 C36            1.0341     3.0421     1.4389 C.3     
  37 F37            2.0561     3.1614     2.3868 F       
  38 F38            0.9095     4.2173     0.6901 F       
  39 H39            1.0881    -1.3745    -1.5704 H       
  40 H40            3.2063    -0.1380    -1.4249 H       
  41 H41            4.0684    -0.3537     0.8329 H       
  42 H42            4.7250    -0.4846    -0.8139 H       
  43 H43            3.6579     3.2175    -0.0326 H       
  44 H44            6.2442     0.7578     2.5011 H       
  45 H45            7.8430     0.1576     1.9910 H       
  46 H46           -1.7833    -0.9264     1.6709 H       
  47 H47           -1.4300    -1.0149    -2.5696 H       
  48 H48           -3.6265    -3.4857    -2.2921 H       
  49 H49           -4.9029    -2.4052    -1.6829 H       
  50 H50           -3.9125    -1.9145    -3.0781 H       
  51 H51           -0.9243     3.5595     2.2601 H       
  52 H52           -0.1345     2.1620     3.0628 H       
  53 H53            9.1212     1.9736     1.4331 H       
  54 H54            9.5254     3.8517    -0.2151 H       
  55 H55            9.0171     2.3276    -0.9763 H       
  56 H56            9.9373     3.5775     2.9611 H       
  57 H57            9.4913     5.4365     4.5124 H       
  58 H58            5.6332     5.9658     2.7634 H       
  59 H59            6.0849     4.1097     1.2103 H       
  60 H60            6.2598    -1.9106     2.4268 H       
  61 H61            5.3702    -2.5155     0.9596 H       
  62 H62            6.6509    -1.4332    -1.2127 H       
  63 H63            8.0142    -0.4276    -0.5492 H       
@<TRIPOS>BOND
   1    1    2 ar
   2    1    6 ar
   3    1   21 1
   4    2    3 ar
   5    2   14 1
   6    3    4 ar
   7    3   39 1
   8    4    5 ar
   9    4   40 1
  10    5    6 ar
  11    5    9 1
  12    6   36 1
  13    7    8 1
  14    7   10 1
  15    7   41 1
  16    7   42 1
  17    8    9 2
  18    8   13 1
  19    9   43 1
  20   10   11 1
  21   10   33 1
  22   10   35 1
  23   11   12 1
  24   11   44 1
  25   11   45 1
  26   12   13 1
  27   12   22 1
  28   13   25 2
  29   14   15 1
  30   14   16 1
  31   15   18 2
  32   15   46 1
  33   16   17 2
  34   16   47 1
  35   17   18 1
  36   17   19 1
  37   19   48 1
  38   19   49 1
  39   19   50 1
  40   20   21 1
  41   20   36 1
  42   20   51 1
  43   20   52 1
  44   22   23 1
  45   22   26 1
  46   22   53 1
  47   23   24 1
  48   23   54 1
  49   23   55 1
  50   24   25 1
  51   26   27 ar
  52   26   31 ar
  53   27   28 ar
  54   27   56 1
  55   28   29 ar
  56   28   57 1
  57   29   30 ar
  58   29   32 1
  59   30   31 ar
  60   30   58 1
  61   31   59 1
  62   33   34 1
  63   33   60 1
  64   33   61 1
  65   34   35 1
  66   35   62 1
  67   35   63 1
  68   36   37 1
  69   36   38 1

#	End of record

