#	Name: ASD01180212
#	Creating user name:	WinNT
#	Creation time:	15. 06. 2019 19:07

#	Modifying user name:	WinNT
#	Modification time:	15. 06. 2019 19:07

#	Program:	/corina/corina34_cracker 3.40 0067  02.08.2006

@<TRIPOS>MOLECULE
ASD01180212
  64   66    0    0    0
SMALL
NO_CHARGES


@<TRIPOS>ATOM
   1 C1             1.4960    -2.1576    -6.7002 C.ar    
   2 C2             1.2383    -2.9626    -5.6091 C.ar    
   3 C3             2.2257    -3.1642    -4.6465 C.ar    
   4 C4             3.4687    -2.5510    -4.7918 C.ar    
   5 C5             3.7154    -1.7480    -5.8869 C.ar    
   6 C6             2.7316    -1.5514    -6.8392 C.ar    
   7 C7             1.9544    -4.0279    -3.4714 C.ar    
   8 C8             2.9433    -4.2285    -2.5094 C.ar    
   9 C9             2.6890    -5.0311    -1.4179 C.ar    
  10 C10            1.4475    -5.6404    -1.2760 C.ar    
  11 C11            0.4600    -5.4417    -2.2341 C.ar    
  12 C12            0.7084    -4.6355    -3.3245 C.ar    
  13 N13            1.1923    -6.4530    -0.1704 N.pl3   
  14 C14           -0.1334    -7.0499     0.0095 C.3     
  15 C15           -0.1983    -8.3615    -0.7298 C.ar    
  16 N16            0.5710    -9.3618    -0.3453 N.ar    
  17 C17            0.5530   -10.5280    -0.9568 C.ar    
  18 C18           -0.2917   -10.7452    -2.0458 C.ar    
  19 C19           -1.1204    -9.7023    -2.4775 C.ar    
  20 C20           -1.0678    -8.4986    -1.7972 C.ar    
  21 C21           -0.3111   -12.0541    -2.7328 C.2     
  22 N22            0.4916   -13.0500    -2.3081 N.am    
  23 O23           -1.0511   -12.2322    -3.6805 O.2     
  24 C24            3.0071    -0.6740    -8.0330 C.3     
  25 F25            3.5309    -1.4509    -9.0719 F       
  26 F26            1.8163    -0.0730    -8.4548 F       
  27 F27            3.9300     0.3166    -7.6806 F       
  28 C28           -0.3863    -7.2911     1.4991 C.3     
  29 C29           -0.4316    -5.9491     2.2325 C.3     
  30 C30           -1.6477    -5.1502     1.7595 C.3     
  31 C31           -0.5370    -6.1945     3.7390 C.3     
  32 C32            0.4723   -14.3471    -2.9888 C.3     
  33 C33            1.4686   -15.2921    -2.3140 C.3     
  34 C34            1.4488   -16.6264    -3.0142 C.2     
  35 O35            0.7133   -16.8034    -3.9563 O.2     
  36 O36            2.2482   -17.6182    -2.5913 O.3     
  37 H37            0.7331    -2.0043    -7.4490 H       
  38 H38            0.2731    -3.4350    -5.5014 H       
  39 H39            4.2374    -2.7035    -4.0486 H       
  40 H40            4.6781    -1.2720    -6.0003 H       
  41 H41            3.9080    -3.7557    -2.6195 H       
  42 H42            3.4549    -5.1871    -0.6726 H       
  43 H43           -0.5037    -5.9162    -2.1223 H       
  44 H44           -0.0592    -4.4811    -4.0684 H       
  45 H45            1.8927    -6.6225     0.4789 H       
  46 H46           -0.8927    -6.3736    -0.3831 H       
  47 H47            1.1978   -11.3231    -0.6126 H       
  48 H48           -1.7866    -9.8354    -3.3171 H       
  49 H49           -1.6925    -7.6720    -2.1018 H       
  50 H50            1.0820   -12.9079    -1.5518 H       
  51 H51           -1.3376    -7.8074     1.6272 H       
  52 H52            0.4172    -7.9026     1.9096 H       
  53 H53            0.4777    -5.3873     2.0187 H       
  54 H54           -1.6493    -4.1721     2.2406 H       
  55 H55           -1.6007    -5.0231     0.6780 H       
  56 H56           -2.5594    -5.6862     2.0231 H       
  57 H57            0.3294    -6.7636     4.0759 H       
  58 H58           -0.5693    -5.2384     4.2615 H       
  59 H59           -1.4463    -6.7563     3.9528 H       
  60 H60           -0.5293   -14.7732    -2.9305 H       
  61 H61            0.7498   -14.2129    -4.0343 H       
  62 H62            2.4702   -14.8660    -2.3723 H       
  63 H63            1.1911   -15.4263    -1.2685 H       
  64 H64            2.2003   -18.4559    -3.0719 H       
@<TRIPOS>BOND
   1    1    2 ar
   2    1    6 ar
   3    1   37 1
   4    2    3 ar
   5    2   38 1
   6    3    4 ar
   7    3    7 1
   8    4    5 ar
   9    4   39 1
  10    5    6 ar
  11    5   40 1
  12    6   24 1
  13    7    8 ar
  14    7   12 ar
  15    8    9 ar
  16    8   41 1
  17    9   10 ar
  18    9   42 1
  19   10   11 ar
  20   10   13 1
  21   11   12 ar
  22   11   43 1
  23   12   44 1
  24   13   14 1
  25   13   45 1
  26   14   15 1
  27   14   28 1
  28   14   46 1
  29   15   16 ar
  30   15   20 ar
  31   16   17 ar
  32   17   18 ar
  33   17   47 1
  34   18   19 ar
  35   18   21 1
  36   19   20 ar
  37   19   48 1
  38   20   49 1
  39   21   22 am
  40   21   23 2
  41   22   32 1
  42   22   50 1
  43   24   25 1
  44   24   26 1
  45   24   27 1
  46   28   29 1
  47   28   51 1
  48   28   52 1
  49   29   30 1
  50   29   31 1
  51   29   53 1
  52   30   54 1
  53   30   55 1
  54   30   56 1
  55   31   57 1
  56   31   58 1
  57   31   59 1
  58   32   33 1
  59   32   60 1
  60   32   61 1
  61   33   34 1
  62   33   62 1
  63   33   63 1
  64   34   35 2
  65   34   36 1
  66   36   64 1

#	End of record

