#	Name: ASD01910041
#	Creating user name:	WinNT
#	Creation time:	15. 06. 2019 19:55

#	Modifying user name:	WinNT
#	Modification time:	15. 06. 2019 19:55

#	Program:	/corina/corina34_cracker 3.40 0067  02.08.2006

@<TRIPOS>MOLECULE
ASD01910041
  43   46    0    0    0
SMALL
NO_CHARGES


@<TRIPOS>ATOM
   1 C1            -0.0167     1.3769     0.0096 C.ar    
   2 C2             0.0021    -0.0041     0.0020 C.ar    
   3 C3             1.2080    -0.6806    -0.0131 C.ar    
   4 C4             2.3987     0.0227    -0.0203 C.ar    
   5 C5             2.3866     1.4038    -0.0127 C.ar    
   6 C6             1.1772     2.0861     0.0020 C.ar    
   7 N7             1.1616     3.4868     0.0092 N.pl3   
   8 C8             0.2443     4.2805    -0.6102 C.2     
   9 C9             0.5819     5.5731    -0.3610 C.2     
  10 C10            1.7422     5.5691     0.4360 C.2     
  11 N11            2.0831     4.3171     0.6597 N.2     
  12 N12           -0.8442     3.8454    -1.3638 N.am    
  13 C13           -1.6779     4.7439    -1.9244 C.2     
  14 C14           -2.8325     4.2825    -2.7236 C.ar    
  15 C15           -3.6979     5.2104    -3.3056 C.ar    
  16 C16           -4.7736     4.7730    -4.0504 C.ar    
  17 C17           -4.9956     3.4180    -4.2210 C.ar    
  18 C18           -4.1417     2.4930    -3.6469 C.ar    
  19 C19           -3.0590     2.9170    -2.9046 C.ar    
  20 C20            2.4547     6.7684     0.9415 C.ar    
  21 C21            3.5987     6.6242     1.7254 C.ar    
  22 C22            4.2579     7.7449     2.1927 C.ar    
  23 C23            3.7848     9.0070     1.8841 C.ar    
  24 C24            2.6501     9.1553     1.1066 C.ar    
  25 C25            1.9863     8.0433     0.6298 C.ar    
  26 O26           -1.4803     5.9338    -1.7727 O.2     
  27 Cl27           4.1932     5.0401     2.1138 Cl      
  28 H28           -0.9589     1.9047     0.0169 H       
  29 H29           -0.9261    -0.5562     0.0083 H       
  30 H30            1.2201    -1.7605    -0.0190 H       
  31 H31            3.3389    -0.5085    -0.0314 H       
  32 H32            3.3168     1.9525    -0.0179 H       
  33 H33            0.0540     6.4476    -0.7118 H       
  34 H34           -1.0019     2.8960    -1.4848 H       
  35 H35           -3.5258     6.2683    -3.1729 H       
  36 H36           -5.4441     5.4898    -4.5009 H       
  37 H37           -5.8395     3.0809    -4.8047 H       
  38 H38           -4.3209     1.4368    -3.7836 H       
  39 H39           -2.3932     2.1940    -2.4570 H       
  40 H40            5.1440     7.6350     2.8003 H       
  41 H41            4.3029     9.8804     2.2517 H       
  42 H42            2.2852    10.1436     0.8688 H       
  43 H43            1.1009     8.1608     0.0228 H       
@<TRIPOS>BOND
   1    1    2 ar
   2    1    6 ar
   3    1   28 1
   4    2    3 ar
   5    2   29 1
   6    3    4 ar
   7    3   30 1
   8    4    5 ar
   9    4   31 1
  10    5    6 ar
  11    5   32 1
  12    6    7 1
  13    7    8 1
  14    7   11 1
  15    8    9 2
  16    8   12 1
  17    9   10 1
  18    9   33 1
  19   10   11 2
  20   10   20 1
  21   12   13 am
  22   12   34 1
  23   13   14 1
  24   13   26 2
  25   14   15 ar
  26   14   19 ar
  27   15   16 ar
  28   15   35 1
  29   16   17 ar
  30   16   36 1
  31   17   18 ar
  32   17   37 1
  33   18   19 ar
  34   18   38 1
  35   19   39 1
  36   20   21 ar
  37   20   25 ar
  38   21   22 ar
  39   21   27 1
  40   22   23 ar
  41   22   40 1
  42   23   24 ar
  43   23   41 1
  44   24   25 ar
  45   24   42 1
  46   25   43 1

#	End of record

