#	Name: ASD00060039
#	Creating user name:	WinNT
#	Creation time:	15. 06. 2019 18:29

#	Modifying user name:	WinNT
#	Modification time:	15. 06. 2019 18:29

#	Program:	/corina/corina34_cracker 3.40 0067  02.08.2006

@<TRIPOS>MOLECULE
ASD00060039
  37   39    0    0    0
SMALL
NO_CHARGES


@<TRIPOS>ATOM
   1 Cl1            0.4754    -0.4884     0.3240 Cl      
   2 Cl2           -2.7491     3.8331     0.0260 Cl      
   3 Cl3           11.0855     5.3897    -1.1351 Cl      
   4 C4             0.2792     1.2314     0.1922 C.ar    
   5 C5             1.3943     2.0555     0.1154 C.ar    
   6 C6             1.2322     3.4469     0.0089 C.ar    
   7 C7            -0.0553     3.9897    -0.0183 C.ar    
   8 C8            -1.1502     3.1578     0.0593 C.ar    
   9 C9            -0.9850     1.7827     0.1579 C.ar    
  10 N10            2.7574     1.8300     0.1171 N.pl3   
  11 C11            3.3678     3.0412     0.0156 C.2     
  12 N12            2.4767     3.9872    -0.0477 N.2     
  13 C13            4.8590     3.2562    -0.0186 C.3     
  14 C14            5.2322     4.0422    -1.2771 C.3     
  15 C15            6.7003     4.3802    -1.2414 C.ar    
  16 C16            7.1058     5.7017    -1.2621 C.ar    
  17 C17            8.4522     6.0123    -1.2293 C.ar    
  18 C18            9.3942     5.0004    -1.1757 C.ar    
  19 C19            8.9878     3.6781    -1.1550 C.ar    
  20 C20            7.6409     3.3688    -1.1822 C.ar    
  21 C21            4.9341     3.1941    -2.5152 C.3     
  22 C22            5.1600     4.0194    -3.7557 C.2     
  23 O23            5.5877     5.1456    -3.6625 O.2     
  24 O24            4.8861     3.5033    -4.9642 O.3     
  25 H25           -0.1913     5.0580    -0.0996 H       
  26 H26           -1.8519     1.1408     0.2128 H       
  27 H27            3.1975     0.9678     0.1795 H       
  28 H28            5.1655     3.8172     0.8643 H       
  29 H29            5.3651     2.2910    -0.0296 H       
  30 H30            4.6485     4.9619    -1.3176 H       
  31 H31            6.3704     6.4915    -1.3042 H       
  32 H32            8.7689     7.0447    -1.2458 H       
  33 H33            9.7227     2.8877    -1.1132 H       
  34 H34            7.3234     2.3368    -1.1616 H       
  35 H35            5.5953     2.3276    -2.5298 H       
  36 H36            3.8972     2.8594    -2.4853 H       
  37 H37            5.0472     4.0707    -5.7306 H       
@<TRIPOS>BOND
   1    1    4 1
   2    2    8 1
   3    3   18 1
   4    4    5 ar
   5    4    9 ar
   6    5    6 ar
   7    5   10 1
   8    6    7 ar
   9    6   12 1
  10    7    8 ar
  11    7   25 1
  12    8    9 ar
  13    9   26 1
  14   10   11 1
  15   10   27 1
  16   11   12 2
  17   11   13 1
  18   13   14 1
  19   13   28 1
  20   13   29 1
  21   14   15 1
  22   14   21 1
  23   14   30 1
  24   15   16 ar
  25   15   20 ar
  26   16   17 ar
  27   16   31 1
  28   17   18 ar
  29   17   32 1
  30   18   19 ar
  31   19   20 ar
  32   19   33 1
  33   20   34 1
  34   21   22 1
  35   21   35 1
  36   21   36 1
  37   22   23 2
  38   22   24 1
  39   24   37 1

#	End of record

