#	Name: ASD01912673
#	Creating user name:	WinNT
#	Creation time:	15. 06. 2019 20:00

#	Modifying user name:	WinNT
#	Modification time:	15. 06. 2019 20:00

#	Program:	/corina/corina34_cracker 3.40 0067  02.08.2006

@<TRIPOS>MOLECULE
ASD01912673
  42   45    0    0    0
SMALL
NO_CHARGES


@<TRIPOS>ATOM
   1 C1            -0.0265     1.3421     0.2541 C.2     
   2 N2             0.0030    -0.0019    -0.0159 N.pl3   
   3 C3            -1.1910    -0.6642    -0.2593 C.2     
   4 C4            -2.3522    -0.0229    -0.2357 C.2     
   5 N5            -2.4359     1.3307     0.0307 N.am    
   6 C6            -1.3130     2.0396     0.2839 C.2     
   7 C7             1.2830     1.7376     0.4534 C.2     
   8 C8             2.0429     0.5809     0.2880 C.2     
   9 N9             1.2237    -0.4064     0.0132 N.2     
  10 O10           -1.3696     3.2329     0.5209 O.2     
  11 C11           -3.6826     1.9657     0.0442 C.ar    
  12 C12            3.5422     0.4819     0.4039 C.3     
  13 O13            4.0821     1.7682     0.7134 O.3     
  14 C14            5.4311     1.8538     0.8531 C.ar    
  15 C15            6.0227     3.0722     1.1536 C.ar    
  16 C16            7.3943     3.1566     1.2950 C.ar    
  17 C17            8.1774     2.0280     1.1373 C.ar    
  18 C18            7.5903     0.8127     0.8374 C.ar    
  19 C19            6.2186     0.7218     0.7010 C.ar    
  20 C20           -3.9980     2.9010    -0.9331 C.ar    
  21 C21           -5.2294     3.5260    -0.9169 C.ar    
  22 C22           -6.1481     3.2215     0.0709 C.ar    
  23 C23           -5.8371     2.2912     1.0457 C.ar    
  24 C24           -4.6098     1.6581     1.0316 C.ar    
  25 C25           -7.4908     3.9055     0.0854 C.3     
  26 H26           -1.1751    -1.7228    -0.4726 H       
  27 H27           -3.2595    -0.5753    -0.4310 H       
  28 H28            1.6404     2.7297     0.6869 H       
  29 H29            3.7997    -0.2206     1.1965 H       
  30 H30            3.9573     0.1315    -0.5411 H       
  31 H31            5.4114     3.9540     1.2765 H       
  32 H32            7.8553     4.1049     1.5286 H       
  33 H33            9.2495     2.0960     1.2483 H       
  34 H34            8.2043    -0.0673     0.7140 H       
  35 H35            5.7605    -0.2277     0.4668 H       
  36 H36           -3.2808     3.1394    -1.7046 H       
  37 H37           -5.4751     4.2535    -1.6764 H       
  38 H38           -6.5566     2.0560     1.8159 H       
  39 H39           -4.3677     0.9313     1.7929 H       
  40 H40           -8.2015     3.3233    -0.5012 H       
  41 H41           -7.8468     3.9854     1.1125 H       
  42 H42           -7.3954     4.9025    -0.3446 H       
@<TRIPOS>BOND
   1    1    2 1
   2    1    7 2
   3    1    6 1
   4    2    3 1
   5    2    9 1
   6    3    4 2
   7    3   26 1
   8    4    5 1
   9    4   27 1
  10    5    6 am
  11    5   11 1
  12    6   10 2
  13    7    8 1
  14    7   28 1
  15    8    9 2
  16    8   12 1
  17   11   20 ar
  18   11   24 ar
  19   12   13 1
  20   12   29 1
  21   12   30 1
  22   13   14 1
  23   14   15 ar
  24   14   19 ar
  25   15   16 ar
  26   15   31 1
  27   16   17 ar
  28   16   32 1
  29   17   18 ar
  30   17   33 1
  31   18   19 ar
  32   18   34 1
  33   19   35 1
  34   20   21 ar
  35   20   36 1
  36   21   22 ar
  37   21   37 1
  38   22   23 ar
  39   22   25 1
  40   23   24 ar
  41   23   38 1
  42   24   39 1
  43   25   40 1
  44   25   41 1
  45   25   42 1

#	End of record

