#	Name: ASD01814097
#	Creating user name:	WinNT
#	Creation time:	15. 06. 2019 19:31

#	Modifying user name:	WinNT
#	Modification time:	15. 06. 2019 19:31

#	Program:	/corina/corina34_cracker 3.40 0067  02.08.2006

@<TRIPOS>MOLECULE
ASD01814097
  48   52    0    0    0
SMALL
NO_CHARGES


@<TRIPOS>ATOM
   1 C1             1.1583     2.2494    -0.5153 C.ar    
   2 C2             0.7818     0.9151    -0.4999 C.ar    
   3 C3             1.7237    -0.0819    -0.3473 C.ar    
   4 C4             3.0706     0.2475    -0.2069 C.ar    
   5 C5             3.4508     1.6003    -0.2232 C.ar    
   6 C6             2.4865     2.5995    -0.3780 C.ar    
   7 N7             4.0208    -0.7400    -0.0528 N.pl3   
   8 C8             5.3259    -0.4752     0.0866 C.2     
   9 C9             5.8187     0.8141     0.0867 C.2     
  10 C10            4.8781     1.9351    -0.0738 C.2     
  11 O11            5.2632     3.0913    -0.0809 O.2     
  12 C12            7.2585     1.0636     0.2434 C.2     
  13 O13            7.7276     2.3274     0.2418 O.3     
  14 O14            8.0263     0.1303     0.3745 O.2     
  15 C15            3.5837    -2.1382    -0.0406 C.3     
  16 C16            3.4403    -2.6321    -1.4571 C.ar    
  17 C17            4.5225    -2.5815    -2.3197 C.ar    
  18 C18            4.3924    -3.0341    -3.6207 C.ar    
  19 C19            3.1762    -3.5390    -4.0594 C.ar    
  20 C20            2.0935    -3.5883    -3.1908 C.ar    
  21 C21            2.2300    -3.1401    -1.8917 C.ar    
  22 N22            3.0409    -3.9975    -5.3759 N.pl3   
  23 F23            1.3401    -1.3772    -0.3336 F       
  24 C24            3.4179    -3.3024    -6.4948 C.2     
  25 C25            3.1515    -4.0257    -7.5938 C.2     
  26 C26            2.5555    -5.2865    -7.1443 C.ar    
  27 C27            2.5138    -5.2186    -5.7397 C.ar    
  28 F28            5.7055    -2.0897    -1.8909 F       
  29 F29            2.8518     3.9001    -0.3940 F       
  30 C30            2.0777    -6.4221    -7.8011 C.ar    
  31 C31            1.5669    -7.4610    -7.0753 C.ar    
  32 C32            1.5190    -7.3966    -5.6894 C.ar    
  33 C33            1.9905    -6.2880    -5.0208 C.ar    
  34 H34            0.4097     3.0179    -0.6396 H       
  35 H35           -0.2603     0.6531    -0.6082 H       
  36 H36            6.0159    -1.2978     0.2033 H       
  37 H37            8.6820     2.4415     0.3480 H       
  38 H38            4.3223    -2.7453     0.4828 H       
  39 H39            2.6235    -2.2142     0.4697 H       
  40 H40            5.2359    -2.9942    -4.2940 H       
  41 H41            1.1462    -3.9804    -3.5302 H       
  42 H42            1.3879    -3.1790    -1.2166 H       
  43 H43            3.8631    -2.3184    -6.4929 H       
  44 H44            3.3403    -3.7333    -8.6162 H       
  45 H45            2.1115    -6.4790    -8.8791 H       
  46 H46            1.1971    -8.3391    -7.5838 H       
  47 H47            1.1120    -8.2256    -5.1294 H       
  48 H48            1.9489    -6.2473    -3.9424 H       
@<TRIPOS>BOND
   1    1    2 ar
   2    1    6 ar
   3    1   34 1
   4    2    3 ar
   5    2   35 1
   6    3    4 ar
   7    3   23 1
   8    4    5 ar
   9    4    7 1
  10    5    6 ar
  11    5   10 1
  12    6   29 1
  13    7    8 1
  14    7   15 1
  15    8    9 2
  16    8   36 1
  17    9   10 1
  18    9   12 1
  19   10   11 2
  20   12   13 1
  21   12   14 2
  22   13   37 1
  23   15   16 1
  24   15   38 1
  25   15   39 1
  26   16   17 ar
  27   16   21 ar
  28   17   18 ar
  29   17   28 1
  30   18   19 ar
  31   18   40 1
  32   19   20 ar
  33   19   22 1
  34   20   21 ar
  35   20   41 1
  36   21   42 1
  37   22   24 1
  38   22   27 1
  39   24   25 2
  40   24   43 1
  41   25   26 1
  42   25   44 1
  43   26   27 ar
  44   26   30 ar
  45   27   33 ar
  46   30   31 ar
  47   30   45 1
  48   31   32 ar
  49   31   46 1
  50   32   33 ar
  51   32   47 1
  52   33   48 1

#	End of record

