#	Name: ASD01200305
#	Creating user name:	WinNT
#	Creation time:	15. 06. 2019 19:08

#	Modifying user name:	WinNT
#	Modification time:	15. 06. 2019 19:08

#	Program:	/corina/corina34_cracker 3.40 0067  02.08.2006

@<TRIPOS>MOLECULE
ASD01200305
  41   41    0    0    0
SMALL
NO_CHARGES


@<TRIPOS>ATOM
   1 C1            -0.0211     1.7054     0.0114 C.2     
   2 S2             0.0021    -0.0041     0.0020 S.3     
   3 C3            -1.7592    -0.0386     0.0193 C.2     
   4 C4            -2.1977     1.2214     0.0304 C.2     
   5 N5            -1.2441     2.1344     0.0310 N.2     
   6 C6            -3.6628     1.5739     0.0464 C.3     
   7 P7            -4.2371     1.7066     1.7715 P.3     
   8 O8            -3.9238     0.4532     2.4935 O.2     
   9 O9            -3.4943     2.9405     2.4910 O.3     
  10 C10           -3.6522     3.2417     3.8789 C.3     
  11 C11           -2.8115     4.4700     4.2331 C.3     
  12 C12           -6.0385     1.9858     1.7924 C.3     
  13 N13            1.1074     2.5171     0.0050 N.am    
  14 O14            3.4290     2.7492    -0.0164 O.3     
  15 C15            4.7195     2.0838    -0.0329 C.3     
  16 C16            4.8300     1.2162    -1.2882 C.3     
  17 C17            5.8338     3.1322    -0.0378 C.3     
  18 C18            4.8545     1.2019     1.2101 C.3     
  19 C19            2.3360     1.9630    -0.0102 C.2     
  20 O20            2.4571     0.7541    -0.0183 O.2     
  21 H21           -2.3763    -0.9250     0.0204 H       
  22 H22           -3.8127     2.5270    -0.4608 H       
  23 H23           -4.2291     0.7964    -0.4663 H       
  24 H24           -4.7019     3.4470     4.0891 H       
  25 H25           -3.3219     2.3911     4.4752 H       
  26 H26           -1.7619     4.2648     4.0230 H       
  27 H27           -3.1419     5.3206     3.6369 H       
  28 H28           -2.9320     4.6998     5.2918 H       
  29 H29           -6.5414     1.1504     1.3053 H       
  30 H30           -6.3819     2.0651     2.8239 H       
  31 H31           -6.2693     2.9089     1.2606 H       
  32 H32            1.0107     3.4823     0.0115 H       
  33 H33            4.7338     1.8445    -2.1737 H       
  34 H34            5.7987     0.7167    -1.3006 H       
  35 H35            4.0361     0.4693    -1.2847 H       
  36 H36            5.7551     3.7503     0.8566 H       
  37 H37            6.8026     2.6327    -0.0501 H       
  38 H38            5.7377     3.7605    -0.9233 H       
  39 H39            4.0606     0.4550     1.2136 H       
  40 H40            5.8232     0.7024     1.1977 H       
  41 H41            4.7758     1.8200     2.1044 H       
@<TRIPOS>BOND
   1    1    2 1
   2    1   13 1
   3    1    5 2
   4    2    3 1
   5    3    4 2
   6    3   21 1
   7    4    5 1
   8    4    6 1
   9    6    7 1
  10    6   22 1
  11    6   23 1
  12    7    8 2
  13    7    9 1
  14    7   12 1
  15    9   10 1
  16   10   11 1
  17   10   24 1
  18   10   25 1
  19   11   26 1
  20   11   27 1
  21   11   28 1
  22   12   29 1
  23   12   30 1
  24   12   31 1
  25   13   19 am
  26   13   32 1
  27   14   15 1
  28   14   19 1
  29   15   16 1
  30   15   17 1
  31   15   18 1
  32   16   33 1
  33   16   34 1
  34   16   35 1
  35   17   36 1
  36   17   37 1
  37   17   38 1
  38   18   39 1
  39   18   40 1
  40   18   41 1
  41   19   20 2

#	End of record

