#	Name: ASD09890037
#	Creating user name:	WinNT
#	Creation time:	15. 06. 2019 21:24

#	Modifying user name:	WinNT
#	Modification time:	15. 06. 2019 21:24

#	Program:	/corina/corina34_cracker 3.40 0067  02.08.2006

@<TRIPOS>MOLECULE
ASD09890037
  46   49    0    0    0
SMALL
NO_CHARGES


@<TRIPOS>ATOM
   1 C1            -0.0167     1.3784     0.0096 C.ar    
   2 C2             0.0021    -0.0041     0.0020 C.ar    
   3 C3             1.2074    -0.6814    -0.0127 C.ar    
   4 C4             2.3963     0.0221    -0.0203 C.ar    
   5 C5             2.3802     1.4093    -0.0132 C.ar    
   6 C6             1.1695     2.0865     0.0021 C.ar    
   7 O7             3.5484     2.1036    -0.0202 O.3     
   8 C8             3.4557     3.5296    -0.0122 C.3     
   9 C9             4.8408     4.1231    -0.0217 C.2     
  10 N10            5.5772     4.4485    -1.1299 N.pl3   
  11 C11            6.7577     4.9500    -0.6542 C.2     
  12 N12            6.6913     4.9099     0.6565 N.2     
  13 N13            5.5580     4.4273     1.0229 N.2     
  14 S14            8.1109     5.5374    -1.6176 S.3     
  15 C15            9.2528     6.0154    -0.2971 C.3     
  16 C16           10.5979     6.4593    -0.8983 C.3     
  17 C17           10.8077     7.9272    -0.4730 C.3     
  18 C18            9.9434     8.0802     0.8032 C.3     
  19 C19            8.6922     7.2291     0.4726 C.3     
  20 C20            5.1999     4.2981    -2.4723 C.ar    
  21 C21            5.0298     5.4167    -3.2761 C.ar    
  22 C22            4.6586     5.2662    -4.5983 C.ar    
  23 C23            4.4560     4.0029    -5.1215 C.ar    
  24 C24            4.6243     2.8851    -4.3226 C.ar    
  25 C25            5.0016     3.0299    -3.0008 C.ar    
  26 Cl26           4.3678     1.3003    -4.9830 Cl      
  27 H27           -0.9595     1.9052     0.0170 H       
  28 H28           -0.9263    -0.5558     0.0080 H       
  29 H29            1.2194    -1.7613    -0.0179 H       
  30 H30            3.3375    -0.5074    -0.0315 H       
  31 H31            1.1543     3.1664     0.0073 H       
  32 H32            2.9113     3.8632    -0.8956 H       
  33 H33            2.9274     3.8543     0.8842 H       
  34 H34            9.4064     5.1787     0.3844 H       
  35 H35           11.4043     5.8385    -0.5080 H       
  36 H36           10.5630     6.3868    -1.9854 H       
  37 H37           11.8578     8.1125    -0.2471 H       
  38 H38           10.4592     8.6040    -1.2532 H       
  39 H39           10.4644     7.6796     1.6728 H       
  40 H40            9.6701     9.1234     0.9619 H       
  41 H41            8.0021     7.7931    -0.1548 H       
  42 H42            8.1985     6.9050     1.3887 H       
  43 H43            5.1872     6.4042    -2.8682 H       
  44 H44            4.5262     6.1367    -5.2238 H       
  45 H45            4.1655     3.8878    -6.1553 H       
  46 H46            5.1333     2.1578    -2.3776 H       
@<TRIPOS>BOND
   1    1    2 ar
   2    1    6 ar
   3    1   27 1
   4    2    3 ar
   5    2   28 1
   6    3    4 ar
   7    3   29 1
   8    4    5 ar
   9    4   30 1
  10    5    6 ar
  11    5    7 1
  12    6   31 1
  13    7    8 1
  14    8    9 1
  15    8   32 1
  16    8   33 1
  17    9   10 1
  18    9   13 2
  19   10   11 1
  20   10   20 1
  21   11   12 2
  22   11   14 1
  23   12   13 1
  24   14   15 1
  25   15   16 1
  26   15   19 1
  27   15   34 1
  28   16   17 1
  29   16   35 1
  30   16   36 1
  31   17   18 1
  32   17   37 1
  33   17   38 1
  34   18   19 1
  35   18   39 1
  36   18   40 1
  37   19   41 1
  38   19   42 1
  39   20   21 ar
  40   20   25 ar
  41   21   22 ar
  42   21   43 1
  43   22   23 ar
  44   22   44 1
  45   23   24 ar
  46   23   45 1
  47   24   25 ar
  48   24   26 1
  49   25   46 1

#	End of record

