#	Name: ASD05720233
#	Creating user name:	WinNT
#	Creation time:	15. 06. 2019 21:02

#	Modifying user name:	WinNT
#	Modification time:	15. 06. 2019 21:02

#	Program:	/corina/corina34_cracker 3.40 0067  02.08.2006

@<TRIPOS>MOLECULE
ASD05720233
 105  110    0    0    0
SMALL
NO_CHARGES


@<TRIPOS>ATOM
   1 N1             2.4802    -0.5020    -3.6881 N.am    
   2 C2             2.3521    -1.9057    -3.2735 C.3     
   3 C3             2.4469    -1.9794    -1.7463 C.3     
   4 C4             3.7408    -1.3037    -1.2863 C.3     
   5 C5             3.7232     0.1700    -1.6986 C.3     
   6 C6             3.6428     0.2680    -3.2253 C.3     
   7 C7             1.5518     0.0669    -4.4824 C.2     
   8 O8             0.5975    -0.5821    -4.8626 O.2     
   9 O9             1.6819     1.3542    -4.8546 O.3     
  10 C10            3.8558    -1.4058     0.2360 C.3     
  11 C11            5.3860     0.4106     0.9934 C.2     
  12 N12            6.6534     0.6518     1.3535 N.am    
  13 C13            7.4238    -0.5985     1.2767 C.3     
  14 C14            6.3909    -1.6401     0.8045 C.3     
  15 N15            5.1483    -0.8662     0.6653 N.am    
  16 C16            8.9610     3.2198     2.2929 C.2     
  17 N17            8.4573     2.0384     1.9231 N.2     
  18 C18            7.1595     1.8862     1.7381 C.2     
  19 C19            6.2867     2.9765     1.9302 C.2     
  20 C20            6.7932     4.1735     2.3044 C.2     
  21 N21            8.1420     4.3001     2.4884 N.pl3   
  22 N22            8.9420     5.3845     2.8654 N.2     
  23 C23           10.1954     5.0050     2.9044 C.2     
  24 C24           10.2684     3.6498     2.5587 C.2     
  25 C25           11.4956     2.8268     2.4855 C.ar    
  26 C26           12.6042     3.2881     1.7721 C.ar    
  27 C27           13.7458     2.5228     1.7039 C.ar    
  28 C28           13.7959     1.2842     2.3483 C.ar    
  29 C29           12.6868     0.8229     3.0618 C.ar    
  30 C30           11.5475     1.5911     3.1346 C.ar    
  31 C31           15.0213     0.4621     2.2747 C.2     
  32 N32           15.9868     0.5960     1.3918 N.2     
  33 C33           16.9338    -0.3189     1.6310 C.2     
  34 C34           16.5564    -1.0536     2.6966 C.2     
  35 N35           15.3480    -0.5625     3.1150 N.pl3   
  36 C36           14.5553    -1.0472     4.2478 C.3     
  37 O37           15.2981    -2.0392     4.9592 O.3     
  38 C38           14.6112    -2.5803     6.0894 C.3     
  39 C39           15.4955    -3.6264     6.7709 C.3     
  40 Si40          14.5999    -4.3319     8.2443 Si      
  41 C41           13.0134    -5.1308     7.6826 C.3     
  42 C42           15.6768    -5.6057     9.0742 C.3     
  43 C43           14.2140    -2.9647     9.4495 C.3     
  44 O44            4.5279     1.2714     0.9713 O.2     
  45 C45            7.9752    -0.9748     2.6534 C.3     
  46 C46            9.0197     0.0569     3.0839 C.3     
  47 C47            6.8330    -0.9994     3.6710 C.3     
  48 C48            0.6444     1.9009    -5.7108 C.3     
  49 C49           -0.7054     1.8141    -4.9956 C.3     
  50 C50            0.9615     3.3642    -6.0257 C.3     
  51 C51            0.5837     1.1004    -7.0133 C.3     
  52 H52            1.3880    -2.2963    -3.5990 H       
  53 H53            3.1556    -2.4928    -3.7182 H       
  54 H54            1.5921    -1.4680    -1.3036 H       
  55 H55            2.4498    -3.0230    -1.4319 H       
  56 H56            4.5939    -1.8000    -1.7488 H       
  57 H57            2.8564     0.6612    -1.2564 H       
  58 H58            4.6344     0.6561    -1.3503 H       
  59 H59            4.5516    -0.1419    -3.6661 H       
  60 H60            3.5303     1.3117    -3.5190 H       
  61 H61            3.0515    -0.8350     0.7002 H       
  62 H62            3.7803    -2.4507     0.5368 H       
  63 H63            8.2325    -0.5057     0.5519 H       
  64 H64            6.6868    -2.0646    -0.1549 H       
  65 H65            6.2710    -2.4255     1.5508 H       
  66 H66            5.2239     2.8573     1.7797 H       
  67 H67            6.1395     5.0198     2.4558 H       
  68 H68           11.0345     5.6333     3.1645 H       
  69 H69           12.5653     4.2454     1.2737 H       
  70 H70           14.6028     2.8795     1.1519 H       
  71 H71           12.7252    -0.1347     3.5598 H       
  72 H72           10.6917     1.2366     3.6898 H       
  73 H73           17.8452    -0.4472     1.0660 H       
  74 H74           17.1050    -1.8719     3.1391 H       
  75 H75           14.3284    -0.2154     4.9147 H       
  76 H76           13.6259    -1.4828     3.8809 H       
  77 H77           14.3854    -1.7804     6.7945 H       
  78 H78           13.6829    -3.0478     5.7607 H       
  79 H79           15.7213    -4.4264     6.0657 H       
  80 H80           16.4238    -3.1590     7.0995 H       
  81 H81           13.2392    -5.9307     6.9775 H       
  82 H82           12.4894    -5.5436     8.5447 H       
  83 H83           12.3834    -4.3856     7.1971 H       
  84 H84           16.6050    -5.1383     9.4028 H       
  85 H85           15.1528    -6.0185     9.9362 H       
  86 H86           15.9026    -6.4056     8.3690 H       
  87 H87           13.5840    -2.2195     8.9640 H       
  88 H88           13.6900    -3.3775    10.3116 H       
  89 H89           15.1422    -2.4973     9.7782 H       
  90 H90            8.4377    -1.9606     2.6025 H       
  91 H91            8.5170     0.9572     3.4373 H       
  92 H92            9.6302    -0.3571     3.8864 H       
  93 H93            9.6561     0.3058     2.2347 H       
  94 H94            6.3705    -0.0137     3.7220 H       
  95 H95            6.0888    -1.7344     3.3643 H       
  96 H96            7.2258    -1.2675     4.6518 H       
  97 H97           -0.6622     2.3843    -4.0676 H       
  98 H98           -1.4842     2.2244    -5.6383 H       
  99 H99           -0.9313     0.7716    -4.7712 H       
 100 H100           1.9230     3.4260    -6.5353 H       
 101 H101           0.1826     3.7745    -6.6684 H       
 102 H102           1.0046     3.9344    -5.0978 H       
 103 H103           0.3578     0.0580    -6.7890 H       
 104 H104          -0.1951     1.5108    -7.6560 H       
 105 H105           1.5453     1.1623    -7.5229 H       
@<TRIPOS>BOND
   1    1    2 1
   2    1    6 1
   3    1    7 am
   4    2    3 1
   5    2   52 1
   6    2   53 1
   7    3    4 1
   8    3   54 1
   9    3   55 1
  10    4    5 1
  11    4   10 1
  12    4   56 1
  13    5    6 1
  14    5   57 1
  15    5   58 1
  16    6   59 1
  17    6   60 1
  18    7    8 2
  19    7    9 1
  20    9   48 1
  21   10   15 1
  22   10   61 1
  23   10   62 1
  24   11   12 am
  25   11   15 am
  26   11   44 2
  27   12   13 1
  28   12   18 1
  29   13   14 1
  30   13   45 1
  31   13   63 1
  32   14   15 1
  33   14   64 1
  34   14   65 1
  35   16   17 1
  36   16   21 1
  37   16   24 2
  38   17   18 2
  39   18   19 1
  40   19   20 2
  41   19   66 1
  42   20   21 1
  43   20   67 1
  44   21   22 1
  45   22   23 2
  46   23   24 1
  47   23   68 1
  48   24   25 1
  49   25   26 ar
  50   25   30 ar
  51   26   27 ar
  52   26   69 1
  53   27   28 ar
  54   27   70 1
  55   28   29 ar
  56   28   31 1
  57   29   30 ar
  58   29   71 1
  59   30   72 1
  60   31   32 2
  61   31   35 1
  62   32   33 1
  63   33   34 2
  64   33   73 1
  65   34   35 1
  66   34   74 1
  67   35   36 1
  68   36   37 1
  69   36   75 1
  70   36   76 1
  71   37   38 1
  72   38   39 1
  73   38   77 1
  74   38   78 1
  75   39   40 1
  76   39   79 1
  77   39   80 1
  78   40   41 1
  79   40   42 1
  80   40   43 1
  81   41   81 1
  82   41   82 1
  83   41   83 1
  84   42   84 1
  85   42   85 1
  86   42   86 1
  87   43   87 1
  88   43   88 1
  89   43   89 1
  90   45   46 1
  91   45   47 1
  92   45   90 1
  93   46   91 1
  94   46   92 1
  95   46   93 1
  96   47   94 1
  97   47   95 1
  98   47   96 1
  99   48   49 1
 100   48   51 1
 101   48   50 1
 102   49   97 1
 103   49   98 1
 104   49   99 1
 105   50  100 1
 106   50  101 1
 107   50  102 1
 108   51  103 1
 109   51  104 1
 110   51  105 1

#	End of record

