#	Name: ASD03731250
#	Creating user name:	WinNT
#	Creation time:	15. 06. 2019 20:45

#	Modifying user name:	WinNT
#	Modification time:	15. 06. 2019 20:45

#	Program:	/corina/corina34_cracker 3.40 0067  02.08.2006

@<TRIPOS>MOLECULE
ASD03731250
  58   63    0    0    0
SMALL
NO_CHARGES


@<TRIPOS>ATOM
   1 N1            -0.0162     1.3436     0.0094 N.am    
   2 C2             0.0561     0.0126     0.2090 C.2     
   3 O3             1.1400    -0.5295     0.3070 O.2     
   4 N4            -1.0732    -0.7175     0.2999 N.am    
   5 C5            -0.9946    -2.1642     0.5168 C.3     
   6 C6            -2.4075    -2.7477     0.5814 C.3     
   7 O7             2.5546    -7.0756     3.4689 O.3     
   8 C8             3.0258    -8.3616     3.9130 C.3     
   9 O9             1.8622    -8.9654     4.5085 O.3     
  10 C10            0.7923    -8.3997     3.8760 C.ar    
  11 C11            1.2185    -7.2372     3.2377 C.ar    
  12 C12           -0.5322    -8.7896     3.7909 C.ar    
  13 C13           -1.4471    -8.0265     3.0718 C.ar    
  14 C14           -1.0112    -6.8628     2.4454 C.ar    
  15 C15            0.3100    -6.4746     2.5232 C.ar    
  16 O16           -2.7763    -8.2382     2.8509 O.3     
  17 C17           -2.2185    -6.2536     1.7841 C.3     
  18 C18           -3.3904    -7.0047     2.4306 C.3     
  19 N19           -2.3290    -4.1944     0.7983 N.am    
  20 C20           -2.3066    -4.7726     2.0158 C.2     
  21 C21           -2.1994    -6.4227     0.2939 C.ar    
  22 C22           -2.1317    -7.5174    -0.5386 C.ar    
  23 C23           -2.1340    -7.3453    -1.9114 C.ar    
  24 C24           -2.2037    -6.0713    -2.4452 C.ar    
  25 C25           -2.2706    -4.9715    -1.6155 C.ar    
  26 C26           -2.2693    -5.1354    -0.2324 C.ar    
  27 O27           -2.3497    -4.2075     3.0881 O.2     
  28 C28            1.1525     2.1171     0.0123 C.ar    
  29 C29            2.3306     1.5973    -0.5068 C.ar    
  30 C30            3.4818     2.3600    -0.5036 C.ar    
  31 C31            3.4615     3.6449     0.0186 C.ar    
  32 C32            2.2848     4.1648     0.5375 C.ar    
  33 C33            1.1313     3.4054     0.5293 C.ar    
  34 O34            4.5956     4.3951     0.0223 O.3     
  35 C35            4.5024     5.7093     0.5755 C.3     
  36 F36            3.5621     6.4531    -0.1455 F       
  37 F37            4.1033     5.6248     1.9137 F       
  38 H38           -0.8767     1.7655    -0.1402 H       
  39 H39           -1.9379    -0.2850     0.2217 H       
  40 H40           -0.4481    -2.6258    -0.3056 H       
  41 H41           -0.4761    -2.3633     1.4547 H       
  42 H42           -2.9540    -2.2861     1.4039 H       
  43 H43           -2.9261    -2.5485    -0.3564 H       
  44 H44            3.3746    -8.9545     3.0675 H       
  45 H45            3.8177    -8.2447     4.6528 H       
  46 H46           -0.8585    -9.6924     4.2859 H       
  47 H47            0.6368    -5.5733     2.0259 H       
  48 H48           -4.1786    -7.1934     1.7016 H       
  49 H49           -3.7780    -6.4536     3.2874 H       
  50 H50           -2.0772    -8.5113    -0.1196 H       
  51 H51           -2.0819    -8.2037    -2.5647 H       
  52 H52           -2.2054    -5.9369    -3.5168 H       
  53 H53           -2.3243    -3.9798    -2.0398 H       
  54 H54            2.3467     0.5967    -0.9128 H       
  55 H55            4.3983     1.9558    -0.9075 H       
  56 H56            2.2696     5.1653     0.9440 H       
  57 H57            0.2142     3.8119     0.9292 H       
  58 H58            5.4748     6.1982     0.5166 H       
@<TRIPOS>BOND
   1    1    2 am
   2    1   28 1
   3    1   38 1
   4    2    3 2
   5    2    4 am
   6    4    5 1
   7    4   39 1
   8    5    6 1
   9    5   40 1
  10    5   41 1
  11    6   19 1
  12    6   42 1
  13    6   43 1
  14    7    8 1
  15    7   11 1
  16    8    9 1
  17    8   44 1
  18    8   45 1
  19    9   10 1
  20   10   11 ar
  21   10   12 ar
  22   11   15 ar
  23   12   13 ar
  24   12   46 1
  25   13   14 ar
  26   13   16 1
  27   14   15 ar
  28   14   17 1
  29   15   47 1
  30   16   18 1
  31   17   18 1
  32   17   20 1
  33   17   21 1
  34   18   48 1
  35   18   49 1
  36   19   20 am
  37   19   26 1
  38   20   27 2
  39   21   22 ar
  40   21   26 ar
  41   22   23 ar
  42   22   50 1
  43   23   24 ar
  44   23   51 1
  45   24   25 ar
  46   24   52 1
  47   25   26 ar
  48   25   53 1
  49   28   29 ar
  50   28   33 ar
  51   29   30 ar
  52   29   54 1
  53   30   31 ar
  54   30   55 1
  55   31   32 ar
  56   31   34 1
  57   32   33 ar
  58   32   56 1
  59   33   57 1
  60   34   35 1
  61   35   36 1
  62   35   37 1
  63   35   58 1

#	End of record

