#	Name: ASD01230509
#	Creating user name:	WinNT
#	Creation time:	15. 06. 2019 19:14

#	Modifying user name:	WinNT
#	Modification time:	15. 06. 2019 19:14

#	Program:	/corina/corina34_cracker 3.40 0067  02.08.2006

@<TRIPOS>MOLECULE
ASD01230509
  40   43    0    0    0
SMALL
NO_CHARGES


@<TRIPOS>ATOM
   1 S1             1.4274    -3.3327    -3.6286 S.o2    
   2 N2             0.8485    -2.9228    -2.1331 N.am    
   3 C3             1.4351    -2.0282    -1.3830 C.2     
   4 N4             2.5626    -1.3312    -1.7131 N.pl3   
   5 C5             3.3210    -1.5266    -2.9479 C.3     
   6 C6             2.3792    -1.8573    -4.1101 C.3     
   7 C7             0.8146    -1.7542    -0.0644 C.2     
   8 N8             1.3405    -0.8415     0.7212 N.2     
   9 C9             2.4215    -0.1596     0.3471 C.2     
  10 C10            3.0299    -0.3832    -0.8326 C.2     
  11 C11           -0.3873    -2.5023     0.3632 C.ar    
  12 C12           -0.5807    -3.8182    -0.0618 C.ar    
  13 C13           -1.7020    -4.5120     0.3387 C.ar    
  14 C14           -2.6393    -3.9038     1.1643 C.ar    
  15 C15           -2.4503    -2.5947     1.5893 C.ar    
  16 C16           -1.3287    -1.8964     1.1977 C.ar    
  17 O17           -3.7434    -4.5907     1.5566 O.3     
  18 C18           -4.9163    -4.3288     0.9226 C.ar    
  19 C19           -4.9564    -3.4031    -0.1103 C.ar    
  20 C20           -6.1502    -3.1387    -0.7531 C.ar    
  21 C21           -7.3044    -3.7954    -0.3681 C.ar    
  22 C22           -7.2673    -4.7180     0.6612 C.ar    
  23 C23           -6.0750    -4.9907     1.3032 C.ar    
  24 O24            2.2924    -4.4341    -3.3874 O.2     
  25 O25            0.2661    -3.4693    -4.4361 O.2     
  26 H26            3.8720    -0.6150    -3.1796 H       
  27 H27            4.0255    -2.3470    -2.8112 H       
  28 H28            2.9586    -2.0665    -5.0094 H       
  29 H29            1.7028    -1.0215    -4.2893 H       
  30 H30            2.8215     0.5941     1.0091 H       
  31 H31            3.9042     0.1946    -1.0936 H       
  32 H32            0.1473    -4.2915    -0.7039 H       
  33 H33           -1.8524    -5.5297     0.0100 H       
  34 H34           -3.1814    -2.1251     2.2308 H       
  35 H35           -1.1801    -0.8804     1.5324 H       
  36 H36           -4.0552    -2.8896    -0.4112 H       
  37 H37           -6.1820    -2.4180    -1.5569 H       
  38 H38           -8.2367    -3.5872    -0.8720 H       
  39 H39           -8.1704    -5.2291     0.9604 H       
  40 H40           -6.0455    -5.7151     2.1036 H       
@<TRIPOS>BOND
   1    1    2 am
   2    1    6 1
   3    1   24 2
   4    1   25 2
   5    2    3 2
   6    3    4 1
   7    3    7 1
   8    4    5 1
   9    4   10 1
  10    5    6 1
  11    5   26 1
  12    5   27 1
  13    6   28 1
  14    6   29 1
  15    7    8 2
  16    7   11 1
  17    8    9 1
  18    9   10 2
  19    9   30 1
  20   10   31 1
  21   11   12 ar
  22   11   16 ar
  23   12   13 ar
  24   12   32 1
  25   13   14 ar
  26   13   33 1
  27   14   15 ar
  28   14   17 1
  29   15   16 ar
  30   15   34 1
  31   16   35 1
  32   17   18 1
  33   18   19 ar
  34   18   23 ar
  35   19   20 ar
  36   19   36 1
  37   20   21 ar
  38   20   37 1
  39   21   22 ar
  40   21   38 1
  41   22   23 ar
  42   22   39 1
  43   23   40 1

#	End of record

