#	Name: ASD01883208
#	Creating user name:	WinNT
#	Creation time:	15. 06. 2019 19:46

#	Modifying user name:	WinNT
#	Modification time:	15. 06. 2019 19:46

#	Program:	/corina/corina34_cracker 3.40 0067  02.08.2006

@<TRIPOS>MOLECULE
ASD01883208
  51   53    0    0    0
SMALL
NO_CHARGES


@<TRIPOS>ATOM
   1 N1            -0.0162     1.3417     0.0094 N.am    
   2 C2             0.0021    -0.0041     0.0020 C.2     
   3 C3            -1.2158    -0.7273     0.0098 C.2     
   4 C4            -2.4263    -0.0108     0.0252 C.2     
   5 C5            -2.3785     1.3976     0.0323 C.2     
   6 C6            -1.1851     2.0328     0.0299 C.2     
   7 O7             1.0657    -0.5999    -0.0117 O.2     
   8 C8            -1.2148    -2.1593     0.0016 C.1     
   9 N9            -1.2140    -3.2953    -0.0049 N.1     
  10 C10            1.2513     2.0762     0.0013 C.3     
  11 C11            1.6788     2.3397    -1.4440 C.3     
  12 C12            3.0025     3.1069    -1.4525 C.3     
  13 C13            4.1050     2.2282    -0.8581 C.3     
  14 C14            3.3670     3.4791    -2.8911 C.3     
  15 C15           -3.7212    -0.7204     0.0332 C.ar    
  16 C16           -4.4983    -0.7763    -1.1293 C.ar    
  17 C17           -5.7080    -1.4415    -1.1158 C.ar    
  18 C18           -6.1522    -2.0536     0.0485 C.ar    
  19 C19           -5.3823    -1.9993     1.2052 C.ar    
  20 C20           -4.1720    -1.3432     1.2002 C.ar    
  21 O21           -7.3422    -2.7069     0.0578 O.3     
  22 C22           -7.7392    -3.3143     1.2889 C.3     
  23 C23           -9.0755    -3.9874     1.1089 C.ar    
  24 C24           -9.1546    -5.3114     0.7048 C.ar    
  25 C25          -10.3977    -5.8954     0.5508 C.ar    
  26 N26          -11.4991    -5.2084     0.7830 N.ar    
  27 C27          -11.4618    -3.9479     1.1686 C.ar    
  28 C28          -10.2549    -3.2992     1.3492 C.ar    
  29 F29           -4.0660    -0.1802    -2.2620 F       
  30 H30           -3.2948     1.9693     0.0437 H       
  31 H31           -1.1609     3.1125     0.0354 H       
  32 H32            1.1244     3.0257     0.5214 H       
  33 H33            2.0168     1.4857     0.5046 H       
  34 H34            1.8057     1.3903    -1.9642 H       
  35 H35            0.9133     2.9303    -1.9474 H       
  36 H36            2.9005     4.0142    -0.8572 H       
  37 H37            5.0481     2.7748    -0.8642 H       
  38 H38            3.8454     1.9631     0.1668 H       
  39 H39            4.2071     1.3209    -1.4534 H       
  40 H40            2.5816     4.1051    -3.3146 H       
  41 H41            4.3101     4.0256    -2.8972 H       
  42 H42            3.4691     2.5718    -3.4864 H       
  43 H43           -6.3094    -1.4856    -2.0118 H       
  44 H44           -5.7326    -2.4768     2.1084 H       
  45 H45           -3.5755    -1.3026     2.0996 H       
  46 H46           -6.9962    -4.0549     1.5848 H       
  47 H47           -7.8185    -2.5502     2.0621 H       
  48 H48           -8.2561    -5.8790     0.5124 H       
  49 H49          -10.4678    -6.9262     0.2363 H       
  50 H50          -12.3851    -3.4174     1.3490 H       
  51 H51          -10.2309    -2.2668     1.6654 H       
@<TRIPOS>BOND
   1    1    2 am
   2    1   10 1
   3    1    6 1
   4    2    3 1
   5    2    7 2
   6    3    4 2
   7    3    8 1
   8    4    5 1
   9    4   15 1
  10    5    6 2
  11    5   30 1
  12    6   31 1
  13    8    9 3
  14   10   11 1
  15   10   32 1
  16   10   33 1
  17   11   12 1
  18   11   34 1
  19   11   35 1
  20   12   13 1
  21   12   14 1
  22   12   36 1
  23   13   37 1
  24   13   38 1
  25   13   39 1
  26   14   40 1
  27   14   41 1
  28   14   42 1
  29   15   16 ar
  30   15   20 ar
  31   16   17 ar
  32   16   29 1
  33   17   18 ar
  34   17   43 1
  35   18   19 ar
  36   18   21 1
  37   19   20 ar
  38   19   44 1
  39   20   45 1
  40   21   22 1
  41   22   23 1
  42   22   46 1
  43   22   47 1
  44   23   24 ar
  45   23   28 ar
  46   24   25 ar
  47   24   48 1
  48   25   26 ar
  49   25   49 1
  50   26   27 ar
  51   27   28 ar
  52   27   50 1
  53   28   51 1

#	End of record

