#	Name: ASD01948248
#	Creating user name:	WinNT
#	Creation time:	15. 06. 2019 20:14

#	Modifying user name:	WinNT
#	Modification time:	15. 06. 2019 20:14

#	Program:	/corina/corina34_cracker 3.40 0067  02.08.2006

@<TRIPOS>MOLECULE
ASD01948248
  45   49    0    0    0
SMALL
NO_CHARGES


@<TRIPOS>ATOM
   1 C1             2.2813     0.1071    -1.6558 C.ar    
   2 C2             2.8490    -1.0908    -2.0522 C.ar    
   3 C3             4.2198    -1.1932    -2.2036 C.ar    
   4 C4             5.0276    -0.0990    -1.9599 C.ar    
   5 C5             4.4629     1.1046    -1.5627 C.ar    
   6 C6             3.0842     1.2057    -1.4104 C.ar    
   7 C7             5.4586     3.2897    -3.6292 C.ar    
   8 C8             5.6934     3.1541    -2.2619 C.ar    
   9 N9             5.2805     2.2161    -1.3143 N.am    
  10 C10            6.0094     4.3424    -4.3276 C.ar    
  11 C11            6.8085     5.2809    -3.6633 C.ar    
  12 C12            7.0459     5.1473    -2.2891 C.ar    
  13 C13            6.4863     4.0813    -1.5912 C.ar    
  14 N14            6.5339     3.6814    -0.2552 N.am    
  15 C15            5.8007     2.5604    -0.1215 C.2     
  16 O16            5.6338     1.9512     0.9188 O.2     
  17 I17            1.6293    -2.7533    -2.4231 I       
  18 F18            5.7788     4.4685    -5.6528 F       
  19 F19            2.5302     2.3756    -1.0237 F       
  20 F20            4.6925     2.3823    -4.2735 F       
  21 O21            7.8385     6.1851    -1.9392 O.3     
  22 C22            8.0767     6.9185    -3.0382 C.2     
  23 N23            7.4751     6.3978    -4.0647 N.2     
  24 S24            7.3524     4.4545     0.9591 S.o2    
  25 C25            6.1646     5.6624     1.6079 C.3     
  26 O26            7.6015     3.4356     1.9178 O.2     
  27 O27            8.4223     5.1139     0.2961 O.2     
  28 C28            6.7083     6.6151     2.6746 C.3     
  29 C29            7.0783     5.8308     3.9071 C.2     
  30 C30            8.3134     5.8409     4.3436 C.2     
  31 C31            5.1147     6.2110     0.6397 C.3     
  32 C32            4.7050     5.2210     1.7329 C.3     
  33 H33            1.2102     0.1853    -1.5424 H       
  34 H34            4.6596    -2.1300    -2.5125 H       
  35 H35            6.0980    -0.1806    -2.0783 H       
  36 H36            8.6813     7.8130    -3.0649 H       
  37 H37            7.5914     7.1253     2.2899 H       
  38 H38            5.9450     7.3509     2.9276 H       
  39 H39            6.3252     5.2605     4.4305 H       
  40 H40            8.5621     5.3480     5.2718 H       
  41 H41            9.0829     6.3421     3.7753 H       
  42 H42            4.8110     7.2506     0.7628 H       
  43 H43            5.1377     5.8462    -0.3872 H       
  44 H44            4.4583     4.2049     1.4249 H       
  45 H45            4.1319     5.6095     2.5747 H       
@<TRIPOS>BOND
   1    1    2 ar
   2    1    6 ar
   3    1   33 1
   4    2    3 ar
   5    2   17 1
   6    3    4 ar
   7    3   34 1
   8    4    5 ar
   9    4   35 1
  10    5    6 ar
  11    5    9 1
  12    6   19 1
  13    7    8 ar
  14    7   10 ar
  15    7   20 1
  16    8    9 1
  17    8   13 ar
  18    9   15 am
  19   10   11 ar
  20   10   18 1
  21   11   12 ar
  22   11   23 1
  23   12   13 ar
  24   12   21 1
  25   13   14 1
  26   14   24 am
  27   14   15 am
  28   15   16 2
  29   21   22 1
  30   22   23 2
  31   22   36 1
  32   24   25 1
  33   24   26 2
  34   24   27 2
  35   25   28 1
  36   25   31 1
  37   25   32 1
  38   28   29 1
  39   28   37 1
  40   28   38 1
  41   29   30 2
  42   29   39 1
  43   30   40 1
  44   30   41 1
  45   31   32 1
  46   31   42 1
  47   31   43 1
  48   32   44 1
  49   32   45 1

#	End of record

