#	Name: ASD03430565
#	Creating user name:	WinNT
#	Creation time:	15. 06. 2019 20:41

#	Modifying user name:	WinNT
#	Modification time:	15. 06. 2019 20:41

#	Program:	/corina/corina34_cracker 3.40 0067  02.08.2006

@<TRIPOS>MOLECULE
ASD03430565
  19   20    0    0    0
SMALL
NO_CHARGES


@<TRIPOS>ATOM
   1 N1            -0.0162     1.3400     0.0094 N.am    
   2 C2             0.0021    -0.0041     0.0020 C.2     
   3 C3             1.4383    -0.4361    -0.0140 C.2     
   4 C4             2.2099     0.8197    -0.0146 C.ar    
   5 C5             3.5778     1.0978    -0.0266 C.ar    
   6 C6             4.0087     2.4105    -0.0241 C.ar    
   7 C7             3.0867     3.4430    -0.0093 C.ar    
   8 C8             1.7297     3.1779     0.0031 C.ar    
   9 C9             1.2735     1.8665    -0.0001 C.ar    
  10 O10           -0.9665    -0.7345     0.0079 O.2     
  11 O11            1.8701    -1.5703    -0.0236 O.2     
  12 C12           -1.2376     2.1488     0.0198 C.3     
  13 Br13           4.8347    -0.3149    -0.0456 Br      
  14 H14            5.0659     2.6314    -0.0333 H       
  15 H15            3.4310     4.4666    -0.0070 H       
  16 H16            1.0221     3.9937     0.0153 H       
  17 H17           -2.1079     1.4925     0.0210 H       
  18 H18           -1.2523     2.7733     0.9131 H       
  19 H19           -1.2615     2.7823    -0.8669 H       
@<TRIPOS>BOND
   1    1    2 am
   2    1    9 1
   3    1   12 1
   4    2    3 1
   5    2   10 2
   6    3    4 1
   7    3   11 2
   8    4    5 ar
   9    4    9 ar
  10    5    6 ar
  11    5   13 1
  12    6    7 ar
  13    6   14 1
  14    7    8 ar
  15    7   15 1
  16    8    9 ar
  17    8   16 1
  18   12   17 1
  19   12   18 1
  20   12   19 1

#	End of record

