#	Name: ASD01881358
#	Creating user name:	WinNT
#	Creation time:	15. 06. 2019 19:42

#	Modifying user name:	WinNT
#	Modification time:	15. 06. 2019 19:42

#	Program:	/corina/corina34_cracker 3.40 0067  02.08.2006

@<TRIPOS>MOLECULE
ASD01881358
  52   53    0    0    0
SMALL
NO_CHARGES


@<TRIPOS>ATOM
   1 C1            -0.0206     1.4663    -0.0611 C.2     
   2 C2            -0.0001    -0.0082    -0.0805 C.ar    
   3 C3             1.2195    -0.6920    -0.0902 C.ar    
   4 C4             1.2331    -2.0726    -0.1084 C.ar    
   5 C5             0.0323    -2.7817    -0.1171 C.ar    
   6 C6            -1.1784    -2.1028    -0.1080 C.ar    
   7 C7            -1.1994    -0.7251    -0.0836 C.ar    
   8 O8             1.0231     2.0883    -0.0535 O.2     
   9 O9            -1.1968     2.1238    -0.0575 O.3     
  10 O10            0.0475    -4.1394    -0.1350 O.3     
  11 C11           -1.2184    -4.8023    -0.1431 C.3     
  12 O12            2.4176    -2.7408    -0.1182 O.3     
  13 C13            3.6083    -1.9508    -0.1089 C.3     
  14 C14            4.8308    -2.8707    -0.1221 C.3     
  15 C15            6.1057    -2.0248    -0.1120 C.3     
  16 C16            7.3282    -2.9447    -0.1252 C.3     
  17 O17            8.5189    -2.1547    -0.1159 O.3     
  18 C18            9.7005    -2.8214    -0.1257 C.ar    
  19 C19           10.8934    -2.1122    -0.1174 C.ar    
  20 C20           12.0997    -2.7901    -0.1269 C.ar    
  21 C21           12.1063    -4.1968    -0.1450 C.ar    
  22 C22           10.8918    -4.8960    -0.1532 C.ar    
  23 C23            9.7101    -4.2136    -0.1382 C.ar    
  24 C24           10.8750    -0.6054    -0.0985 C.3     
  25 O25           13.2686    -2.1026    -0.1193 O.3     
  26 C26           13.3762    -4.9269    -0.1557 C.2     
  27 O27           14.4234    -4.3214    -0.2496 O.2     
  28 C28           13.3819    -6.4302    -0.0502 C.3     
  29 H29            2.1487    -0.1416    -0.0837 H       
  30 H30           -2.1061    -2.6557    -0.1152 H       
  31 H31           -2.1428    -0.1995    -0.0714 H       
  32 H32           -1.1596     3.0900    -0.0446 H       
  33 H33           -1.0635    -5.8811    -0.1574 H       
  34 H34           -1.7782    -4.5274     0.7508 H       
  35 H35           -1.7791    -4.5040    -1.0290 H       
  36 H36            3.6262    -1.3101    -0.9905 H       
  37 H37            3.6277    -1.3335     0.7893 H       
  38 H38            4.8129    -3.5114     0.7596 H       
  39 H39            4.8114    -3.4880    -1.0202 H       
  40 H40            6.1236    -1.3841    -0.9937 H       
  41 H41            6.1251    -1.4076     0.7861 H       
  42 H42            7.3103    -3.5854     0.7564 H       
  43 H43            7.3087    -3.5620    -1.0234 H       
  44 H44           10.8911    -5.9759    -0.1670 H       
  45 H45            8.7767    -4.7568    -0.1401 H       
  46 H46           10.8711    -0.2550     0.9336 H       
  47 H47           11.7602    -0.2248    -0.6081 H       
  48 H48            9.9804    -0.2466    -0.6075 H       
  49 H49           13.6084    -1.9142     0.7662 H       
  50 H50           12.3657    -6.7864     0.1192 H       
  51 H51           13.7673    -6.8580    -0.9757 H       
  52 H52           14.0168    -6.7336     0.7823 H       
@<TRIPOS>BOND
   1    1    2 1
   2    1    8 2
   3    1    9 1
   4    2    3 ar
   5    2    7 ar
   6    3    4 ar
   7    3   29 1
   8    4    5 ar
   9    4   12 1
  10    5    6 ar
  11    5   10 1
  12    6    7 ar
  13    6   30 1
  14    7   31 1
  15    9   32 1
  16   10   11 1
  17   11   33 1
  18   11   34 1
  19   11   35 1
  20   12   13 1
  21   13   14 1
  22   13   36 1
  23   13   37 1
  24   14   15 1
  25   14   38 1
  26   14   39 1
  27   15   16 1
  28   15   40 1
  29   15   41 1
  30   16   17 1
  31   16   42 1
  32   16   43 1
  33   17   18 1
  34   18   19 ar
  35   18   23 ar
  36   19   20 ar
  37   19   24 1
  38   20   21 ar
  39   20   25 1
  40   21   22 ar
  41   21   26 1
  42   22   23 ar
  43   22   44 1
  44   23   45 1
  45   24   46 1
  46   24   47 1
  47   24   48 1
  48   25   49 1
  49   26   27 2
  50   26   28 1
  51   28   50 1
  52   28   51 1
  53   28   52 1

#	End of record

