#	Name: ASD05430605
#	Creating user name:	WinNT
#	Creation time:	15. 06. 2019 21:00

#	Modifying user name:	WinNT
#	Modification time:	15. 06. 2019 21:00

#	Program:	/corina/corina34_cracker 3.40 0067  02.08.2006

@<TRIPOS>MOLECULE
ASD05430605
  25   25    0    0    0
SMALL
NO_CHARGES


@<TRIPOS>ATOM
   1 N1            -0.0156     1.3008     0.0092 N.2     
   2 C2             0.0021    -0.0041     0.0020 C.2     
   3 N3             1.2869    -0.4196    -0.0125 N.pl3   
   4 C4             2.0745     0.7000    -0.0140 C.2     
   5 C5             1.2444     1.7603    -0.0004 C.2     
   6 C6             1.7511    -1.8090    -0.0244 C.3     
   7 C7             1.2401    -2.5282     1.2256 C.3     
   8 C8             1.2173    -2.5144    -1.2727 C.3     
   9 C9             1.6587     3.2093     0.0027 C.3     
  10 O10            3.0849     3.2970    -0.0112 O.3     
  11 C11            3.5850     4.6356    -0.0095 C.3     
  12 H12           -0.8669    -0.6454     0.0072 H       
  13 H13            3.1541     0.7276    -0.0238 H       
  14 H14            2.8409    -1.8279    -0.0344 H       
  15 H15            0.1503    -2.5093     1.2357 H       
  16 H16            1.5855    -3.5620     1.2168 H       
  17 H17            1.6204    -2.0256     2.1150 H       
  18 H18            0.1275    -2.4955    -1.2626 H       
  19 H19            1.5813    -2.0021    -2.1632 H       
  20 H20            1.5627    -3.5482    -1.2815 H       
  21 H21            1.2556     3.7043    -0.8808 H       
  22 H22            1.2735     3.6954     0.8990 H       
  23 H23            3.2219     5.1602    -0.8933 H       
  24 H24            3.2397     5.1513     0.8866 H       
  25 H25            4.6748     4.6164    -0.0206 H       
@<TRIPOS>BOND
   1    1    2 2
   2    1    5 1
   3    2    3 1
   4    2   12 1
   5    3    4 1
   6    3    6 1
   7    4    5 2
   8    4   13 1
   9    5    9 1
  10    6    7 1
  11    6    8 1
  12    6   14 1
  13    7   15 1
  14    7   16 1
  15    7   17 1
  16    8   18 1
  17    8   19 1
  18    8   20 1
  19    9   10 1
  20    9   21 1
  21    9   22 1
  22   10   11 1
  23   11   23 1
  24   11   24 1
  25   11   25 1

#	End of record

