#	Name: ASD05940102
#	Creating user name:	WinNT
#	Creation time:	15. 06. 2019 21:04

#	Modifying user name:	WinNT
#	Modification time:	15. 06. 2019 21:04

#	Program:	/corina/corina34_cracker 3.40 0067  02.08.2006

@<TRIPOS>MOLECULE
ASD05940102
  47   47    0    0    0
SMALL
NO_CHARGES


@<TRIPOS>ATOM
   1 C1            -0.2184     1.3385     0.0460 C.ar    
   2 C2            -0.2864    -0.0400     0.0712 C.ar    
   3 C3             1.0153     1.9716    -0.0288 C.ar    
   4 C4             2.1806     1.2179    -0.0784 C.ar    
   5 C5             2.1126    -0.1607    -0.0532 C.ar    
   6 C6             0.8789    -0.7937     0.0217 C.ar    
   7 N7             0.8099    -2.1925     0.0472 N.am    
   8 C8             1.7545    -2.9022     0.6956 C.2     
   9 C9             1.6252    -4.3991     0.8120 C.3     
  10 O10            2.7088    -2.3360     1.1855 O.2     
  11 N11            1.0843     3.3704    -0.0548 N.am    
  12 C12            0.1786     4.1025     0.6236 C.2     
  13 C13            0.1819     5.6047     0.5038 C.3     
  14 O14           -0.6392     3.5522     1.3304 O.2     
  15 C15           -0.9382     6.1877     1.3678 C.3     
  16 C16           -0.9349     7.7128     1.2461 C.3     
  17 C17           -2.1298     8.2879     2.0093 C.3     
  18 C18            0.3626     8.2687     1.8364 C.3     
  19 C19            2.7546    -6.4839     1.5996 C.3     
  20 C20            2.8204    -4.9554     1.5885 C.3     
  21 C21            0.3312    -4.7431     1.5524 C.3     
  22 H22           -1.1249     1.9246     0.0800 H       
  23 H23           -1.2459    -0.5324     0.1298 H       
  24 H24            3.1401     1.7102    -0.1369 H       
  25 H25            3.0189    -0.7468    -0.0921 H       
  26 H26            0.0821    -2.6505    -0.4019 H       
  27 H27            1.6020    -4.8403    -0.1844 H       
  28 H28            1.7840     3.8121    -0.5610 H       
  29 H29            1.1420     5.9941     0.8423 H       
  30 H30            0.0221     5.8865    -0.5370 H       
  31 H31           -1.8983     5.7983     1.0292 H       
  32 H32           -0.7784     5.9058     2.4085 H       
  33 H33           -1.0056     7.9937     0.1953 H       
  34 H34           -2.0591     8.0070     3.0601 H       
  35 H35           -2.1274     9.3744     1.9226 H       
  36 H36           -3.0542     7.8919     1.5888 H       
  37 H37            0.4334     7.9878     2.8872 H       
  38 H38            1.2139     7.8590     1.2927 H       
  39 H39            0.3650     9.3552     1.7497 H       
  40 H40            1.8293    -6.8043     2.0784 H       
  41 H41            2.7815    -6.8562     0.5755 H       
  42 H42            3.6061    -6.8802     2.1527 H       
  43 H43            3.7457    -4.6350     1.1096 H       
  44 H44            2.7935    -4.5831     2.6126 H       
  45 H45           -0.5203    -4.3468     0.9993 H       
  46 H46            0.2377    -5.8258     1.6366 H       
  47 H47            0.3544    -4.3019     2.5488 H       
@<TRIPOS>BOND
   1    1    2 ar
   2    1    3 ar
   3    1   22 1
   4    2    6 ar
   5    2   23 1
   6    3    4 ar
   7    3   11 1
   8    4    5 ar
   9    4   24 1
  10    5    6 ar
  11    5   25 1
  12    6    7 1
  13    7    8 am
  14    7   26 1
  15    8    9 1
  16    8   10 2
  17    9   21 1
  18    9   20 1
  19    9   27 1
  20   11   12 am
  21   11   28 1
  22   12   13 1
  23   12   14 2
  24   13   15 1
  25   13   29 1
  26   13   30 1
  27   15   16 1
  28   15   31 1
  29   15   32 1
  30   16   17 1
  31   16   18 1
  32   16   33 1
  33   17   34 1
  34   17   35 1
  35   17   36 1
  36   18   37 1
  37   18   38 1
  38   18   39 1
  39   19   20 1
  40   19   40 1
  41   19   41 1
  42   19   42 1
  43   20   43 1
  44   20   44 1
  45   21   45 1
  46   21   46 1
  47   21   47 1

#	End of record

