#	Name: ASD01882617
#	Creating user name:	WinNT
#	Creation time:	15. 06. 2019 19:44

#	Modifying user name:	WinNT
#	Modification time:	15. 06. 2019 19:44

#	Program:	/corina/corina34_cracker 3.40 0067  02.08.2006

@<TRIPOS>MOLECULE
ASD01882617
  34   36    0    0    0
SMALL
NO_CHARGES


@<TRIPOS>ATOM
   1 C1            -0.0159     1.3220     0.0093 C.2     
   2 N2             0.0021    -0.0041     0.0020 N.2     
   3 C3             1.1523    -0.6857    -0.0126 C.2     
   4 C4             2.3835     0.0173    -0.0206 C.2     
   5 C5             2.3523     1.3664    -0.0131 C.2     
   6 N6             1.1484     2.0132     0.0019 N.pl3   
   7 O7            -1.0993     2.1290     0.0184 O.3     
   8 C8             0.8540     3.4562     0.0125 C.3     
   9 C9            -0.6831     3.5211     0.0242 C.3     
  10 O10            1.1423    -1.9071    -0.0187 O.2     
  11 C11           -1.1944     4.2379    -1.2270 C.3     
  12 O12           -2.6209     4.3119    -1.1842 O.3     
  13 C13           -3.2390     4.9237    -2.2295 C.ar    
  14 C14           -4.6217     5.0302    -2.2518 C.ar    
  15 C15           -5.2496     5.6517    -3.3136 C.ar    
  16 C16           -4.4973     6.1697    -4.3574 C.ar    
  17 C17           -3.1145     6.0641    -4.3347 C.ar    
  18 C18           -2.4864     5.4464    -3.2707 C.ar    
  19 O19           -5.1154     6.7807    -5.4032 O.3     
  20 C20           -4.2787     7.2910    -6.4432 C.3     
  21 F21           -3.5396     6.2435    -7.0033 F       
  22 F22           -5.0721     7.8827    -7.4319 F       
  23 F23           -3.4053     8.2464    -5.9125 F       
  24 H24            3.3237    -0.5140    -0.0321 H       
  25 H25            3.2727     1.9314    -0.0185 H       
  26 H26            1.2651     3.9237     0.9072 H       
  27 H27            1.2480     3.9334    -0.8848 H       
  28 H28           -1.0396     4.0220     0.9243 H       
  29 H29           -0.7793     5.2451    -1.2639 H       
  30 H30           -0.8857     3.6850    -2.1142 H       
  31 H31           -5.2075     4.6268    -1.4390 H       
  32 H32           -6.3263     5.7339    -3.3313 H       
  33 H33           -2.5287     6.4671    -5.1476 H       
  34 H34           -1.4094     5.3674    -3.2513 H       
@<TRIPOS>BOND
   1    1    2 2
   2    1    6 1
   3    1    7 1
   4    2    3 1
   5    3    4 1
   6    3   10 2
   7    4    5 2
   8    4   24 1
   9    5    6 1
  10    5   25 1
  11    6    8 1
  12    7    9 1
  13    8    9 1
  14    8   26 1
  15    8   27 1
  16    9   11 1
  17    9   28 1
  18   11   12 1
  19   11   29 1
  20   11   30 1
  21   12   13 1
  22   13   14 ar
  23   13   18 ar
  24   14   15 ar
  25   14   31 1
  26   15   16 ar
  27   15   32 1
  28   16   17 ar
  29   16   19 1
  30   17   18 ar
  31   17   33 1
  32   18   34 1
  33   19   20 1
  34   20   21 1
  35   20   22 1
  36   20   23 1

#	End of record

