#	Name: ASD00450021
#	Creating user name:	WinNT
#	Creation time:	15. 06. 2019 18:36

#	Modifying user name:	WinNT
#	Modification time:	15. 06. 2019 18:36

#	Program:	/corina/corina34_cracker 3.40 0067  02.08.2006

@<TRIPOS>MOLECULE
ASD00450021
  54   59    0    0    0
SMALL
NO_CHARGES


@<TRIPOS>ATOM
   1 Cl1           14.4747     0.4327    -3.1516 Cl      
   2 C2            -0.5064     0.7447     0.1033 C.ar    
   3 C3            -0.2210    -0.2162    -0.8848 C.ar    
   4 C4             1.0155    -0.8854    -0.8218 C.ar    
   5 N5             1.8524    -0.5770     0.1673 N.ar    
   6 C6             1.5376     0.3321     1.0697 C.ar    
   7 N7             0.3926     0.9826     1.0504 N.ar    
   8 C8             1.3765    -1.9065    -1.8292 C.ar    
   9 C9             0.4467    -2.3215    -2.7853 C.ar    
  10 C10            0.8336    -3.2802    -3.7074 C.ar    
  11 C11            2.1158    -3.7944    -3.6566 C.ar    
  12 N12            2.9788    -3.3885    -2.7450 N.ar    
  13 C13            2.6616    -2.4715    -1.8449 C.ar    
  14 N14            3.6024    -2.0706    -0.9084 N.pl3   
  15 C15            4.8465    -2.6996    -0.8560 C.ar    
  16 C16            6.0198    -1.9837    -1.1604 C.ar    
  17 C17            7.2735    -2.6407    -1.1013 C.ar    
  18 C18            7.3285    -3.9934    -0.7411 C.ar    
  19 C19            6.1781    -4.6655    -0.4508 C.ar    
  20 C20            4.9420    -4.0298    -0.4996 C.ar    
  21 C21            3.6925    -4.8033    -0.1659 C.3     
  22 C22            5.9943    -0.6247    -1.5257 C.ar    
  23 C23            7.1691     0.0023    -1.8066 C.ar    
  24 N24            8.3342    -0.6295    -1.7464 N.ar    
  25 C25            8.4372    -1.9013    -1.4116 C.ar    
  26 N26            9.6813    -2.5099    -1.3647 N.pl3   
  27 C27           10.8169    -1.8128    -1.7880 C.ar    
  28 C28           12.0418    -2.0392    -1.1733 C.ar    
  29 C29           13.1618    -1.3492    -1.5935 C.ar    
  30 C30           13.0647    -0.4329    -2.6260 C.ar    
  31 C31           11.8456    -0.2049    -3.2399 C.ar    
  32 C32           10.7235    -0.8966    -2.8279 C.ar    
  33 N33           -1.7520     1.2364    -0.1973 N.pl3   
  34 C34           -2.1855     0.5926    -1.3172 C.2     
  35 N35           -1.2878    -0.2626    -1.7153 N.2     
  36 H36            2.2460     0.5512     1.8549 H       
  37 H37           -0.5498    -1.9055    -2.8051 H       
  38 H38            0.1390    -3.6234    -4.4598 H       
  39 H39            2.4163    -4.5420    -4.3758 H       
  40 H40            3.3954    -1.3528    -0.2896 H       
  41 H41            8.2797    -4.5028    -0.6938 H       
  42 H42            6.2280    -5.7083    -0.1741 H       
  43 H43            3.3294    -5.3104    -1.0599 H       
  44 H44            3.9167    -5.5411     0.6045 H       
  45 H45            2.9275    -4.1180     0.1990 H       
  46 H46            5.0584    -0.0887    -1.5825 H       
  47 H47            7.1525     1.0451    -2.0872 H       
  48 H48            9.7643    -3.4195    -1.0381 H       
  49 H49           12.1181    -2.7540    -0.3673 H       
  50 H50           14.1143    -1.5246    -1.1157 H       
  51 H51           11.7725     0.5113    -4.0450 H       
  52 H52            9.7733    -0.7219    -3.3106 H       
  53 H53           -2.2352     1.9168     0.2971 H       
  54 H54           -3.1360     0.7630    -1.8008 H       
@<TRIPOS>BOND
   1    1   30 1
   2    2    3 ar
   3    2    7 ar
   4    2   33 1
   5    3    4 ar
   6    3   35 1
   7    4    5 ar
   8    4    8 1
   9    5    6 ar
  10    6    7 ar
  11    6   36 1
  12    8    9 ar
  13    8   13 ar
  14    9   10 ar
  15    9   37 1
  16   10   11 ar
  17   10   38 1
  18   11   12 ar
  19   11   39 1
  20   12   13 ar
  21   13   14 1
  22   14   15 1
  23   14   40 1
  24   15   16 ar
  25   15   20 ar
  26   16   17 ar
  27   16   22 ar
  28   17   18 ar
  29   17   25 ar
  30   18   19 ar
  31   18   41 1
  32   19   20 ar
  33   19   42 1
  34   20   21 1
  35   21   43 1
  36   21   44 1
  37   21   45 1
  38   22   23 ar
  39   22   46 1
  40   23   24 ar
  41   23   47 1
  42   24   25 ar
  43   25   26 1
  44   26   27 1
  45   26   48 1
  46   27   28 ar
  47   27   32 ar
  48   28   29 ar
  49   28   49 1
  50   29   30 ar
  51   29   50 1
  52   30   31 ar
  53   31   32 ar
  54   31   51 1
  55   32   52 1
  56   33   34 1
  57   33   53 1
  58   34   35 2
  59   34   54 1

#	End of record

