#	Name: ASD03240245
#	Creating user name:	WinNT
#	Creation time:	15. 06. 2019 20:34

#	Modifying user name:	WinNT
#	Modification time:	15. 06. 2019 20:34

#	Program:	/corina/corina34_cracker 3.40 0067  02.08.2006

@<TRIPOS>MOLECULE
ASD03240245
  88   91    0    0    0
SMALL
NO_CHARGES


@<TRIPOS>ATOM
   1 C1            -0.0187     1.5258     0.0104 C.3     
   2 C2             0.0021    -0.0041     0.0020 C.3     
   3 H3             1.0039     1.9031     0.0027 H       
   4 H4            -0.5459     1.8868    -0.8726 H       
   5 H5            -0.5289     1.8773     0.9072 H       
   6 H6             0.5293    -0.3651     0.8851 H       
   7 H7            -1.0205    -0.3814     0.0098 H       
   8 H8             0.5123    -0.3556    -0.8948 H       
   9 C9            16.0888     8.5820    13.1391 C.2     
  10 N10           15.7846     7.7643    14.2017 N.pl3   
  11 O11           14.3785    12.1605    12.6517 O.2     
  12 C12           13.9718    11.6029    13.6489 C.2     
  13 C13           14.4934    10.2371    14.0144 C.3     
  14 N14           15.4734     9.8051    13.0147 N.pl3   
  15 N15           16.9646     8.1999    12.2526 N.2     
  16 N16           13.0532    12.2046    14.4303 N.am    
  17 C17           12.6498    13.5104    14.1531 C.ar    
  18 C18           11.3403    13.9022    14.4131 C.ar    
  19 C19           10.9387    15.1905    14.1406 C.ar    
  20 C20           11.8481    16.1052    13.6025 C.ar    
  21 C21           13.1628    15.7084    13.3429 C.ar    
  22 C22           13.5591    14.4199    13.6224 C.ar    
  23 C23           11.4210    17.4869    13.3087 C.2     
  24 N24           12.2992    18.3678    12.7898 N.am    
  25 O25           10.2767    17.8306    13.5347 O.2     
  26 C26           11.8737    19.6541    12.4342 C.ar    
  27 C27           12.7468    20.7287    12.5416 C.ar    
  28 C28           10.5807    19.8538    11.9688 C.ar    
  29 C29           10.1614    21.1215    11.6179 C.ar    
  30 C30           11.0328    22.1971    11.7303 C.ar    
  31 C31           12.3276    21.9965    12.1912 C.ar    
  32 N32           10.6080    23.4818    11.3747 N.pl3   
  33 C33           11.5430    24.6075    11.4430 C.3     
  34 C34            9.2282    23.7012    10.9341 C.3     
  35 C35            8.3289    23.8172    12.1379 C.ar    
  36 C36           12.3921    24.6315    10.1982 C.ar    
  37 C37           13.7267    24.2784    10.2651 C.ar    
  38 C38           14.5057    24.3005     9.1231 C.ar    
  39 C39           13.9497    24.6752     7.9145 C.ar    
  40 C40           12.6145    25.0275     7.8474 C.ar    
  41 C41           11.8347    25.0013     8.9882 C.ar    
  42 C42            7.7120    22.7129    12.6397 C.ar    
  43 C43            6.8769    22.8007    13.7522 C.ar    
  44 C44            6.6541    23.9933    14.3688 C.ar    
  45 C45            7.2743    25.1556    13.8794 C.ar    
  46 C46            8.1276    25.0655    12.7515 C.ar    
  47 C47            7.0685    26.4048    14.4896 C.ar    
  48 C48            7.6859    27.5091    13.9880 C.ar    
  49 C49            8.5209    27.4213    12.8755 C.ar    
  50 C50            8.7478    26.2278    12.2621 C.ar    
  51 C51           12.0085    25.4365     6.5296 C.3     
  52 C52           10.3793    25.3853     8.9151 C.3     
  53 H53           16.2217     6.9031    14.2916 H       
  54 H54           15.1328     8.0486    14.8614 H       
  55 H55           14.9688    10.2799    14.9943 H       
  56 H56           13.6663     9.5278    14.0425 H       
  57 H57           15.6880    10.3820    12.2650 H       
  58 H58           17.4018     7.3387    12.3426 H       
  59 H59           12.6728    11.7295    15.1856 H       
  60 H60           10.6381    13.1949    14.8290 H       
  61 H61            9.9219    15.4939    14.3421 H       
  62 H62           13.8680    16.4128    12.9272 H       
  63 H63           14.5749    14.1126    13.4223 H       
  64 H64           13.2259    18.1110    12.6626 H       
  65 H65           13.7537    20.5726    12.8996 H       
  66 H66            9.9032    19.0174    11.8811 H       
  67 H67            9.1558    21.2767    11.2557 H       
  68 H68           13.0053    22.8328    12.2786 H       
  69 H69           10.9839    25.5401    11.5195 H       
  70 H70           12.1836    24.4953    12.3177 H       
  71 H71            9.1749    24.6205    10.3509 H       
  72 H72            8.9053    22.8613    10.3190 H       
  73 H73           14.1611    23.9856    11.2096 H       
  74 H74           15.5487    24.0253     9.1756 H       
  75 H75           14.5584    24.6931     7.0225 H       
  76 H76            7.8716    21.7542    12.1688 H       
  77 H77            6.3991    21.9090    14.1302 H       
  78 H78            6.0039    24.0462    15.2295 H       
  79 H79            6.4236    26.4880    15.3519 H       
  80 H80            7.5260    28.4678    14.4588 H       
  81 H81            8.9981    28.3131    12.4970 H       
  82 H82            9.3976    26.1749    11.4011 H       
  83 H83           11.6135    24.5562     6.0225 H       
  84 H84           11.2009    26.1470     6.7061 H       
  85 H85           12.7726    25.9022     5.9072 H       
  86 H86            9.7725    24.4881     8.7930 H       
  87 H87           10.0917    25.8962     9.8340 H       
  88 H88           10.2210    26.0494     8.0654 H       
@<TRIPOS>BOND
   1    1    2 1
   2    1    3 1
   3    1    4 1
   4    1    5 1
   5    2    6 1
   6    2    7 1
   7    2    8 1
   8    9   10 1
   9    9   15 2
  10    9   14 1
  11   10   53 1
  12   10   54 1
  13   11   12 2
  14   12   13 1
  15   12   16 am
  16   13   14 1
  17   13   55 1
  18   13   56 1
  19   14   57 1
  20   15   58 1
  21   16   17 1
  22   16   59 1
  23   17   18 ar
  24   17   22 ar
  25   18   19 ar
  26   18   60 1
  27   19   20 ar
  28   19   61 1
  29   20   21 ar
  30   20   23 1
  31   21   22 ar
  32   21   62 1
  33   22   63 1
  34   23   24 am
  35   23   25 2
  36   24   26 1
  37   24   64 1
  38   26   27 ar
  39   26   28 ar
  40   27   31 ar
  41   27   65 1
  42   28   29 ar
  43   28   66 1
  44   29   30 ar
  45   29   67 1
  46   30   31 ar
  47   30   32 1
  48   31   68 1
  49   32   33 1
  50   32   34 1
  51   33   36 1
  52   33   69 1
  53   33   70 1
  54   34   35 1
  55   34   71 1
  56   34   72 1
  57   35   42 ar
  58   35   46 ar
  59   36   37 ar
  60   36   41 ar
  61   37   38 ar
  62   37   73 1
  63   38   39 ar
  64   38   74 1
  65   39   40 ar
  66   39   75 1
  67   40   41 ar
  68   40   51 1
  69   41   52 1
  70   42   43 ar
  71   42   76 1
  72   43   44 ar
  73   43   77 1
  74   44   45 ar
  75   44   78 1
  76   45   46 ar
  77   45   47 ar
  78   46   50 ar
  79   47   48 ar
  80   47   79 1
  81   48   49 ar
  82   48   80 1
  83   49   50 ar
  84   49   81 1
  85   50   82 1
  86   51   83 1
  87   51   84 1
  88   51   85 1
  89   52   86 1
  90   52   87 1
  91   52   88 1

#	End of record

