#	Name: ASD01912624
#	Creating user name:	WinNT
#	Creation time:	15. 06. 2019 20:00

#	Modifying user name:	WinNT
#	Modification time:	15. 06. 2019 20:00

#	Program:	/corina/corina34_cracker 3.40 0067  02.08.2006

@<TRIPOS>MOLECULE
ASD01912624
  33   34    0    0    0
SMALL
NO_CHARGES


@<TRIPOS>ATOM
   1 C1            -0.0169     1.3948     0.0097 C.ar    
   2 C2             0.0021    -0.0041     0.0020 C.ar    
   3 C3            -1.2594    -0.7592     0.0095 C.2     
   4 C4            -1.2357    -2.2660     0.0012 C.3     
   5 O5            -2.3190    -0.1694     0.0224 O.2     
   6 C6            -2.6484    -2.7906     0.0113 C.2     
   7 C7            -2.8945    -4.2416     0.0058 C.ar    
   8 O8            -3.5823    -2.0173     0.0240 O.2     
   9 C9            -4.2041    -4.7324     0.0152 C.ar    
  10 C10           -4.4264    -6.0932     0.0094 C.ar    
  11 C11           -3.3578    -6.9726    -0.0051 C.ar    
  12 C12           -2.0589    -6.4947    -0.0140 C.ar    
  13 C13           -1.8201    -5.1367    -0.0147 C.ar    
  14 C14            1.2262    -0.6819    -0.0133 C.ar    
  15 C15            2.4064     0.0294    -0.0208 C.ar    
  16 C16            2.3856     1.4151    -0.0131 C.ar    
  17 C17            1.1732     2.0978     0.0021 C.ar    
  18 O18            1.1592     3.4574     0.0096 O.3     
  19 C19           -0.1207     4.0929     0.0252 C.3     
  20 F20            3.5467     2.1057    -0.0200 F       
  21 H21           -0.9585     1.9237     0.0171 H       
  22 H22           -0.7244    -2.6164    -0.8954 H       
  23 H23           -0.7081    -2.6259     0.8845 H       
  24 H24           -5.0389    -4.0474     0.0272 H       
  25 H25           -5.4371    -6.4738     0.0166 H       
  26 H26           -3.5384    -8.0374    -0.0092 H       
  27 H27           -1.2303    -7.1873    -0.0246 H       
  28 H28           -0.8060    -4.7652    -0.0216 H       
  29 H29            1.2460    -1.7617    -0.0189 H       
  30 H30            3.3507    -0.4947    -0.0322 H       
  31 H31           -0.6831     3.7990    -0.8611 H       
  32 H32           -0.6661     3.7895     0.9188 H       
  33 H33            0.0110     5.1749     0.0297 H       
@<TRIPOS>BOND
   1    1    2 ar
   2    1   17 ar
   3    1   21 1
   4    2    3 1
   5    2   14 ar
   6    3    4 1
   7    3    5 2
   8    4    6 1
   9    4   22 1
  10    4   23 1
  11    6    7 1
  12    6    8 2
  13    7    9 ar
  14    7   13 ar
  15    9   10 ar
  16    9   24 1
  17   10   11 ar
  18   10   25 1
  19   11   12 ar
  20   11   26 1
  21   12   13 ar
  22   12   27 1
  23   13   28 1
  24   14   15 ar
  25   14   29 1
  26   15   16 ar
  27   15   30 1
  28   16   17 ar
  29   16   20 1
  30   17   18 1
  31   18   19 1
  32   19   31 1
  33   19   32 1
  34   19   33 1

#	End of record

