#	Name: ASD01916204
#	Creating user name:	WinNT
#	Creation time:	15. 06. 2019 20:06

#	Modifying user name:	WinNT
#	Modification time:	15. 06. 2019 20:06

#	Program:	/corina/corina34_cracker 3.40 0067  02.08.2006

@<TRIPOS>MOLECULE
ASD01916204
  40   42    0    0    0
SMALL
NO_CHARGES


@<TRIPOS>ATOM
   1 C1            -0.4095     1.7393     0.1050 C.ar    
   2 C2            -0.5419     0.3890     0.3738 C.ar    
   3 N3             0.5014    -0.3408     0.7074 N.ar    
   4 C4             1.7192     0.1810     0.8004 C.ar    
   5 C5             1.9323     1.5319     0.5451 C.ar    
   6 C6             0.8483     2.3305     0.1897 C.ar    
   7 C7            -1.9008    -0.2561     0.2836 C.3     
   8 O8             1.0138     3.6529    -0.0679 O.3     
   9 C9             2.2654     4.1718     0.0379 C.ar    
  10 C10            3.1961     3.9757    -0.9727 C.ar    
  11 N11            4.4114     4.4765    -0.8756 N.ar    
  12 C12            4.7921     5.1783     0.1738 C.ar    
  13 C13            3.9203     5.4171     1.2226 C.ar    
  14 C14            2.6295     4.9116     1.1579 C.ar    
  15 C15            2.8609    -0.6833     1.1797 C.2     
  16 N16            2.6613    -1.9927     1.4287 N.am    
  17 O17            3.9775    -0.2116     1.2663 O.2     
  18 C18            3.7478    -2.8270     1.6822 C.ar    
  19 C19            3.5469    -4.1947     1.8228 C.ar    
  20 C20            4.6344    -5.0141     2.0745 C.ar    
  21 C21            5.8902    -4.4349     2.1774 C.ar    
  22 C22            6.0185    -3.0645     2.0264 C.ar    
  23 N23            4.9628    -2.3096     1.7815 N.ar    
  24 C24           -1.8372    -1.4478    -0.6738 C.3     
  25 F25            4.3200     6.1370     2.2938 F       
  26 F26            7.2389    -2.4935     2.1254 F       
  27 H27           -1.2717     2.3278    -0.1719 H       
  28 H28            2.9231     1.9548     0.6218 H       
  29 H29           -2.2061    -0.6000     1.2719 H       
  30 H30           -2.6239     0.4702    -0.0877 H       
  31 H31            2.9217     3.4061    -1.8482 H       
  32 H32            5.7971     5.5716     0.2160 H       
  33 H33            1.9263     5.0853     1.9590 H       
  34 H34            1.7612    -2.3542     1.4315 H       
  35 H35            2.5550    -4.6134     1.7371 H       
  36 H36            4.5074    -6.0805     2.1886 H       
  37 H37            6.7587    -5.0461     2.3735 H       
  38 H38           -2.8202    -1.9143    -0.7390 H       
  39 H39           -1.5320    -1.1039    -1.6621 H       
  40 H40           -1.1142    -2.1740    -0.3025 H       
@<TRIPOS>BOND
   1    1    2 ar
   2    1    6 ar
   3    1   27 1
   4    2    3 ar
   5    2    7 1
   6    3    4 ar
   7    4    5 ar
   8    4   15 1
   9    5    6 ar
  10    5   28 1
  11    6    8 1
  12    7   24 1
  13    7   29 1
  14    7   30 1
  15    8    9 1
  16    9   10 ar
  17    9   14 ar
  18   10   11 ar
  19   10   31 1
  20   11   12 ar
  21   12   13 ar
  22   12   32 1
  23   13   25 1
  24   13   14 ar
  25   14   33 1
  26   15   16 am
  27   15   17 2
  28   16   18 1
  29   16   34 1
  30   18   19 ar
  31   18   23 ar
  32   19   20 ar
  33   19   35 1
  34   20   21 ar
  35   20   36 1
  36   21   22 ar
  37   21   37 1
  38   22   23 ar
  39   22   26 1
  40   24   38 1
  41   24   39 1
  42   24   40 1

#	End of record

