#	Name: ASD00840550
#	Creating user name:	WinNT
#	Creation time:	15. 06. 2019 18:39

#	Modifying user name:	WinNT
#	Modification time:	15. 06. 2019 18:39

#	Program:	/corina/corina34_cracker 3.40 0067  02.08.2006

@<TRIPOS>MOLECULE
ASD00840550
  91   96    0    0    0
SMALL
NO_CHARGES


@<TRIPOS>ATOM
   1 N1             1.0487     1.4367    -0.7544 N.ar    
   2 C2             1.3096     0.1441    -0.8553 C.ar    
   3 C3             1.2270    -0.6835     0.2574 C.ar    
   4 C4             0.8673    -0.1379     1.4771 C.ar    
   5 C5             0.6015     1.2232     1.5410 C.ar    
   6 C6             0.7033     1.9858     0.3948 C.ar    
   7 C7             1.5247    -2.1560     0.1375 C.3     
   8 C8             1.2325    -2.8641     1.4433 C.2     
   9 C9             0.7118    -2.7748    -1.0014 C.3     
  10 C10           -0.7506    -2.4745    -0.7957 C.2     
  11 N11           -1.6701    -2.9990    -1.6299 N.am    
  12 O12           -1.1000    -1.7607     0.1204 O.2     
  13 C13           -3.0901    -2.6340    -1.5139 C.3     
  14 C14           -3.5961    -2.2021    -2.8943 C.3     
  15 N15           -3.3043    -3.2591    -3.8719 N.3     
  16 C16           -1.8573    -3.4680    -4.0149 C.3     
  17 C17           -1.2792    -3.9471    -2.6843 C.3     
  18 C18           -3.9240    -2.9612    -5.1701 C.3     
  19 C19           -3.4974    -4.0159    -6.1948 C.3     
  20 C20           -4.1938    -3.7353    -7.5284 C.3     
  21 N21           -5.6495    -3.7716    -7.3391 N.3     
  22 C22           -6.0882    -2.7361    -6.3947 C.3     
  23 C23           -5.4483    -2.9868    -5.0273 C.3     
  24 H24           -6.1312    -3.6839    -8.2213 H       
  25 O25            0.1566    -2.9363     1.9986 O.2     
  26 N26            2.3891    -3.3972     1.8718 N.am    
  27 C27            3.0033    -2.3813    -0.0801 C.ar    
  28 C28            3.4475    -3.1324     1.0011 C.ar    
  29 C29            3.8715    -1.9963    -1.0767 C.ar    
  30 C30            5.2065    -2.3582    -1.0081 C.ar    
  31 C31            5.6622    -3.1073     0.0651 C.ar    
  32 C32            4.7911    -3.4940     1.0656 C.ar    
  33 Cl33           6.3052    -1.8756    -2.2625 Cl      
  34 F34            6.9643    -3.4611     0.1334 F       
  35 C35            2.2500    -5.9587     2.8688 C.ar    
  36 C36            0.9982    -6.3595     2.4243 C.ar    
  37 C37            3.2701    -6.8831     2.9901 C.ar    
  38 C38            3.0465    -8.2080     2.6690 C.ar    
  39 C39            1.7960    -8.6140     2.2240 C.ar    
  40 C40            0.7712    -7.6888     2.1019 C.ar    
  41 O41            1.5766    -9.9175     1.9087 O.3     
  42 O42           -0.0047    -5.4501     2.3056 O.3     
  43 C43            2.6779   -10.8156     2.0589 C.3     
  44 C44           -1.2671    -5.9332     1.8422 C.3     
  45 C45           -2.2630    -4.7738     1.7737 C.3     
  46 S46            2.5413    -4.2683     3.2719 S.o2    
  47 O47            3.9066    -4.1767     3.6550 O.2     
  48 O48            1.4693    -3.8659     4.1134 O.2     
  49 O49            1.6608    -0.3787    -2.0570 O.3     
  50 C50            2.1568    -0.2283    -4.4175 C.3     
  51 C51            1.6195     0.4995    -3.1836 C.3     
  52 H52            0.7945    -0.7569     2.3591 H       
  53 H53            0.3179     1.6805     2.4774 H       
  54 H54            0.4980     3.0451     0.4392 H       
  55 H55            1.0391    -2.3536    -1.9520 H       
  56 H56            0.8632    -3.8542    -1.0110 H       
  57 H57           -3.6622    -3.4944    -1.1669 H       
  58 H58           -3.1998    -1.8096    -0.8093 H       
  59 H59           -4.6721    -2.0337    -2.8510 H       
  60 H60           -3.0952    -1.2815    -3.1937 H       
  61 H61           -1.6724    -4.2177    -4.7843 H       
  62 H62           -1.3806    -2.5298    -4.2987 H       
  63 H63           -0.1923    -3.9934    -2.7527 H       
  64 H64           -1.6763    -4.9339    -2.4466 H       
  65 H65           -3.6054    -1.9751    -5.5080 H       
  66 H66           -2.4170    -3.9734    -6.3325 H       
  67 H67           -3.7807    -5.0059    -5.8376 H       
  68 H68           -3.8993    -2.7508    -7.8919 H       
  69 H69           -3.9032    -4.4929    -8.2563 H       
  70 H70           -5.7848    -1.7563    -6.7635 H       
  71 H71           -7.1735    -2.7679    -6.2992 H       
  72 H72           -5.7623    -3.9607    -4.6517 H       
  73 H73           -5.7618    -2.2091    -4.3308 H       
  74 H74            3.5119    -1.4128    -1.9113 H       
  75 H75            5.1528    -4.0774     1.8994 H       
  76 H76            4.2437    -6.5692     3.3363 H       
  77 H77            3.8454    -8.9285     2.7640 H       
  78 H78           -0.2026    -8.0028     1.7561 H       
  79 H79            3.0065   -10.8170     3.0982 H       
  80 H80            2.3681   -11.8212     1.7745 H       
  81 H81            3.4992   -10.4937     1.4187 H       
  82 H82           -1.1475    -6.3686     0.8501 H       
  83 H83           -1.6401    -6.6925     2.5295 H       
  84 H84           -2.3826    -4.3384     2.7658 H       
  85 H85           -1.8900    -4.0145     1.0863 H       
  86 H86           -3.2260    -5.1423     1.4202 H       
  87 H87            2.2073     0.4665    -5.2558 H       
  88 H88            3.1535    -0.6153    -4.2058 H       
  89 H89            1.4922    -1.0546    -4.6700 H       
  90 H90            0.5905     0.8104    -3.3644 H       
  91 H91            2.2342     1.3770    -2.9830 H       
@<TRIPOS>BOND
   1    1    2 ar
   2    1    6 ar
   3    2    3 ar
   4    2   49 1
   5    3    4 ar
   6    3    7 1
   7    4    5 ar
   8    4   52 1
   9    5    6 ar
  10    5   53 1
  11    6   54 1
  12    7    8 1
  13    7    9 1
  14    7   27 1
  15    8   25 2
  16    8   26 am
  17    9   10 1
  18    9   55 1
  19    9   56 1
  20   10   11 am
  21   10   12 2
  22   11   13 1
  23   11   17 1
  24   13   14 1
  25   13   57 1
  26   13   58 1
  27   14   15 1
  28   14   59 1
  29   14   60 1
  30   15   16 1
  31   15   18 1
  32   16   17 1
  33   16   61 1
  34   16   62 1
  35   17   63 1
  36   17   64 1
  37   18   19 1
  38   18   23 1
  39   18   65 1
  40   19   20 1
  41   19   66 1
  42   19   67 1
  43   20   21 1
  44   20   68 1
  45   20   69 1
  46   21   22 1
  47   21   24 1
  48   22   23 1
  49   22   70 1
  50   22   71 1
  51   23   72 1
  52   23   73 1
  53   26   46 am
  54   26   28 1
  55   27   28 ar
  56   27   29 ar
  57   28   32 ar
  58   29   30 ar
  59   29   74 1
  60   30   31 ar
  61   30   33 1
  62   31   32 ar
  63   31   34 1
  64   32   75 1
  65   35   36 ar
  66   35   37 ar
  67   35   46 1
  68   36   42 1
  69   36   40 ar
  70   37   38 ar
  71   37   76 1
  72   38   39 ar
  73   38   77 1
  74   39   40 ar
  75   39   41 1
  76   40   78 1
  77   41   43 1
  78   42   44 1
  79   43   79 1
  80   43   80 1
  81   43   81 1
  82   44   45 1
  83   44   82 1
  84   44   83 1
  85   45   84 1
  86   45   85 1
  87   45   86 1
  88   46   47 2
  89   46   48 2
  90   49   51 1
  91   50   51 1
  92   50   87 1
  93   50   88 1
  94   50   89 1
  95   51   90 1
  96   51   91 1

#	End of record

