#	Name: ASD01151048
#	Creating user name:	WinNT
#	Creation time:	15. 06. 2019 19:05

#	Modifying user name:	WinNT
#	Modification time:	15. 06. 2019 19:05

#	Program:	/corina/corina34_cracker 3.40 0067  02.08.2006

@<TRIPOS>MOLECULE
ASD01151048
  45   48    0    0    0
SMALL
NO_CHARGES


@<TRIPOS>ATOM
   1 F1             7.1406     1.4583    -0.9052 F       
   2 F2             6.7797     2.1272     1.2492 F       
   3 F3             6.0462     3.4194    -0.4861 F       
   4 N4            -0.0167     1.3793     0.0096 N.pl3   
   5 N5            -1.1321    -0.6960     0.0091 N.ar    
   6 N6             0.0041    -2.7035    -0.0134 N.ar    
   7 C7            -1.1200     3.5125     0.6441 C.3     
   8 C8            -1.8447     3.9142    -1.5381 C.3     
   9 C9            -0.6465     4.3261    -0.6118 C.3     
  10 C10           -1.2952     2.0945     0.0196 C.3     
  11 C11           -1.7751     2.3606    -1.4256 C.3     
  12 C12           -2.5746     4.0507     0.8046 C.3     
  13 C13           -3.0545     4.3168    -0.6406 C.3     
  14 C14            0.0021    -0.0041     0.0020 C.ar    
  15 C15            1.2228    -0.7040    -0.0139 C.ar    
  16 C16            2.5171     0.0200    -0.0219 C.ar    
  17 C17            1.1807    -2.0959    -0.0214 C.ar    
  18 C18           -1.1189    -2.0139     0.0015 C.ar    
  19 C19            3.5147    -0.3204     0.8901 C.ar    
  20 C20            2.7427     1.0395    -0.9451 C.ar    
  21 C21           -2.4304    -2.7563     0.0101 C.3     
  22 C22            4.7171     0.3568     0.8781 C.ar    
  23 C23            3.9490     1.7098    -0.9479 C.ar    
  24 C24            4.9333     1.3716    -0.0368 C.ar    
  25 C25            6.2485     2.1073    -0.0449 C.3     
  26 H26           -0.4799     3.5696     1.5245 H       
  27 H27           -1.8329     4.3197    -2.5498 H       
  28 H28           -0.6278     5.3990    -0.4205 H       
  29 H29            0.3086     3.9672    -0.9950 H       
  30 H30           -2.0435     1.5259     0.5717 H       
  31 H31           -2.7608     1.9235    -1.5851 H       
  32 H32           -1.0598     1.9592    -2.1434 H       
  33 H33           -3.2062     3.3022     1.2830 H       
  34 H34           -2.5761     4.9754     1.3818 H       
  35 H35           -3.2920     5.3722    -0.7739 H       
  36 H36           -3.9220     3.6990    -0.8727 H       
  37 H37            0.8167     1.8757     0.0043 H       
  38 H38            2.0944    -2.6716    -0.0332 H       
  39 H39            3.3468    -1.1123     1.6050 H       
  40 H40            1.9750     1.3041    -1.6572 H       
  41 H41           -2.7566    -2.9294    -1.0155 H       
  42 H42           -2.3032    -3.7127     0.5172 H       
  43 H43           -3.1799    -2.1637     0.5346 H       
  44 H44            5.4907     0.0942     1.5845 H       
  45 H45            4.1250     2.4997    -1.6631 H       
@<TRIPOS>BOND
   1    1   25 1
   2    2   25 1
   3    3   25 1
   4    4   14 1
   5    4   37 1
   6    4   10 1
   7    5   14 ar
   8    5   18 ar
   9    6   17 ar
  10    6   18 ar
  11    7    9 1
  12    7   10 1
  13    7   12 1
  14    7   26 1
  15    8    9 1
  16    8   11 1
  17    8   13 1
  18    8   27 1
  19    9   28 1
  20    9   29 1
  21   10   11 1
  22   10   30 1
  23   11   31 1
  24   11   32 1
  25   12   13 1
  26   12   33 1
  27   12   34 1
  28   13   35 1
  29   13   36 1
  30   14   15 ar
  31   15   16 1
  32   15   17 ar
  33   16   19 ar
  34   16   20 ar
  35   17   38 1
  36   18   21 1
  37   19   22 ar
  38   19   39 1
  39   20   23 ar
  40   20   40 1
  41   21   41 1
  42   21   42 1
  43   21   43 1
  44   22   24 ar
  45   22   44 1
  46   23   24 ar
  47   23   45 1
  48   24   25 1

#	End of record

