#	Name: ASD01410749
#	Creating user name:	WinNT
#	Creation time:	15. 06. 2019 19:18

#	Modifying user name:	WinNT
#	Modification time:	15. 06. 2019 19:18

#	Program:	/corina/corina34_cracker 3.40 0067  02.08.2006

@<TRIPOS>MOLECULE
ASD01410749
 110  117    0    0    0
SMALL
NO_CHARGES


@<TRIPOS>ATOM
   1 O1             1.8990     2.3534     1.8252 O.3     
   2 C2             0.1846    -0.3105     2.8180 C.3     
   3 C3             1.6323    -0.0039     2.3763 C.3     
   4 N4             2.2691     0.4892     3.6104 N.am    
   5 C5             1.7552    -0.3476     4.7028 C.3     
   6 C6             0.3787    -0.8755     4.2470 C.3     
   7 O7            -0.6001     0.8834     2.8472 O.3     
   8 C8             2.6925    -1.5006     4.9540 C.2     
   9 O9             3.6986    -1.6205     4.2874 O.2     
  10 N10            2.4126    -2.3986     5.9192 N.am    
  11 C11            1.6584     1.0546     1.2863 C.3     
  12 C12            3.1567     2.4731     2.5066 C.3     
  13 C13            3.1036     1.5403     3.7015 C.2     
  14 O14            3.7795     1.7328     4.6900 O.2     
  15 C15            3.2556    -3.5857     6.0821 C.3     
  16 C16            3.2284    -4.5643     4.9364 C.2     
  17 N17            2.3648    -4.3850     3.9173 N.am    
  18 O18            3.9837    -5.5132     4.9313 O.2     
  19 S19            2.4243    -5.3820     2.5964 S.o2    
  20 C20            1.9734    -7.0161     3.2420 C.3     
  21 C21            4.5765    -3.4162     6.8352 C.3     
  22 C22            3.4089    -4.1550     7.4939 C.3     
  23 C23            2.0484    -8.2019     2.2780 C.3     
  24 C24            3.0907    -8.0510     3.3879 C.3     
  25 O25            1.4063    -4.8868     1.7375 O.2     
  26 O26            3.7895    -5.3608     2.2025 O.2     
  27 C27            5.7508    -4.2410     6.3749 C.2     
  28 C28            6.8441    -3.6501     5.9608 C.2     
  29 C29           -1.9452     0.7385     2.7536 C.ar    
  30 C30           -2.7989     1.8663     2.7572 C.ar    
  31 C31           -2.5130    -0.5040     2.6474 C.ar    
  32 C32           -3.9059    -0.6269     2.5520 C.ar    
  33 N33           -4.6957     0.4336     2.5613 N.ar    
  34 C34           -4.1986     1.6708     2.6575 C.ar    
  35 C35           -4.5058    -1.9728     2.4378 C.2     
  36 C36           -5.0487     2.7905     2.6669 C.ar    
  37 C37           -4.5090     4.0534     2.7674 C.ar    
  38 C38           -3.1260     4.2339     2.8596 C.ar    
  39 C39           -2.2819     3.1660     2.8577 C.ar    
  40 Cl40          -6.7684     2.5823     2.5520 Cl      
  41 O41           -5.3299     5.1360     2.7765 O.3     
  42 C42           -4.7101     6.4192     2.8829 C.3     
  43 N43           -5.7797    -2.2268     2.3425 N.2     
  44 C44           -6.1321    -3.4862     2.2490 C.2     
  45 C45           -5.1304    -4.3750     2.2624 C.2     
  46 S46           -3.6121    -3.4906     2.4011 S.3     
  47 C47           -7.5745    -3.9074     2.1341 C.3     
  48 C48           -7.9365    -4.0899     0.6588 C.3     
  49 C49           -7.7806    -5.2288     2.8771 C.3     
  50 C50           -5.7858     7.5072     2.8771 C.3     
  51 C51            3.3600     3.9144     2.9780 C.3     
  52 C52            3.4120     4.8453     1.7648 C.3     
  53 C53            2.1976     4.3231     3.8850 C.3     
  54 N54           -6.6199     7.3776     4.0793 N.3     
  55 C55           -7.5086     8.5388     4.2317 C.3     
  56 C56           -5.7900     7.1958     5.2792 C.3     
  57 C57           -6.6980     7.0057     6.4971 C.3     
  58 O58           -7.5758     8.1290     6.6110 O.3     
  59 C59           -8.3994     8.3351     5.4601 C.3     
  60 H60           -0.2700    -1.0542     2.1635 H       
  61 H61            2.1238    -0.9157     2.0371 H       
  62 H62            1.6449     0.2482     5.6089 H       
  63 H63           -0.4056    -0.5087     4.9090 H       
  64 H64            0.3790    -1.9653     4.2265 H       
  65 H65            1.6531    -2.2589     6.5061 H       
  66 H66            0.6996     1.0560     0.7679 H       
  67 H67            2.4470     0.8129     0.5737 H       
  68 H68            3.9693     2.1801     1.8418 H       
  69 H69            1.7084    -3.6719     3.9576 H       
  70 H70            1.1791    -7.0238     3.9885 H       
  71 H71            4.8184    -2.4215     7.2095 H       
  72 H72            2.8829    -3.6462     8.3017 H       
  73 H73            3.4905    -5.2373     7.5941 H       
  74 H74            1.3038    -8.9899     2.3906 H       
  75 H75            2.3688    -8.0001     1.2559 H       
  76 H76            4.0968    -7.7500     3.0959 H       
  77 H77            3.0319    -8.7398     4.2306 H       
  78 H78            5.6909    -5.3193     6.3864 H       
  79 H79            7.6857    -4.2412     5.6309 H       
  80 H80            6.9040    -2.5718     5.9493 H       
  81 H81           -1.8893    -1.3856     2.6368 H       
  82 H82           -2.7224     5.2327     2.9373 H       
  83 H83           -1.2153     3.3197     2.9299 H       
  84 H84           -4.1438     6.4732     3.8126 H       
  85 H85           -4.0374     6.5689     2.0384 H       
  86 H86           -5.2346    -5.4478     2.1951 H       
  87 H87           -8.2130    -3.1405     2.5727 H       
  88 H88           -7.2980    -4.8568     0.2202 H       
  89 H89           -8.9797    -4.3946     0.5757 H       
  90 H90           -7.7896    -3.1485     0.1294 H       
  91 H91           -7.5227    -5.0988     3.9281 H       
  92 H92           -8.8239    -5.5335     2.7940 H       
  93 H93           -7.1421    -5.9957     2.4385 H       
  94 H94           -5.3105     8.4881     2.8686 H       
  95 H95           -6.4086     7.3976     1.9892 H       
  96 H96            4.2960     3.9869     3.5319 H       
  97 H97            2.4760     4.7728     1.2109 H       
  98 H98            3.5568     5.8721     2.1007 H       
  99 H99            4.2401     4.5542     1.1187 H       
 100 H100           2.1606     3.6600     4.7493 H       
 101 H101           2.3424     5.3499     4.2208 H       
 102 H102           1.2617     4.2506     3.3311 H       
 103 H103          -6.9103     9.4405     4.3614 H       
 104 H104          -8.1316     8.6393     3.3430 H       
 105 H105          -5.1585     6.3161     5.1551 H       
 106 H106          -5.1642     8.0761     5.4257 H       
 107 H107          -7.2854     6.0957     6.3746 H       
 108 H108          -6.0881     6.9276     7.3971 H       
 109 H109          -9.0200     9.2186     5.6102 H       
 110 H110          -9.0362     7.4638     5.3075 H       
@<TRIPOS>BOND
   1    1   11 1
   2    1   12 1
   3    2    3 1
   4    2    7 1
   5    2    6 1
   6    2   60 1
   7    3    4 1
   8    3   11 1
   9    3   61 1
  10    4    5 1
  11    4   13 am
  12    5    6 1
  13    5    8 1
  14    5   62 1
  15    6   63 1
  16    6   64 1
  17    7   29 1
  18    8    9 2
  19    8   10 am
  20   10   15 1
  21   10   65 1
  22   11   66 1
  23   11   67 1
  24   12   13 1
  25   12   51 1
  26   12   68 1
  27   13   14 2
  28   15   16 1
  29   15   21 1
  30   15   22 1
  31   16   17 am
  32   16   18 2
  33   17   19 am
  34   17   69 1
  35   19   20 1
  36   19   25 2
  37   19   26 2
  38   20   23 1
  39   20   24 1
  40   20   70 1
  41   21   22 1
  42   21   27 1
  43   21   71 1
  44   22   72 1
  45   22   73 1
  46   23   24 1
  47   23   74 1
  48   23   75 1
  49   24   76 1
  50   24   77 1
  51   27   28 2
  52   27   78 1
  53   28   79 1
  54   28   80 1
  55   29   30 ar
  56   29   31 ar
  57   30   34 ar
  58   30   39 ar
  59   31   32 ar
  60   31   81 1
  61   32   33 ar
  62   32   35 1
  63   33   34 ar
  64   34   36 ar
  65   35   43 2
  66   35   46 1
  67   36   37 ar
  68   36   40 1
  69   37   38 ar
  70   37   41 1
  71   38   39 ar
  72   38   82 1
  73   39   83 1
  74   41   42 1
  75   42   50 1
  76   42   84 1
  77   42   85 1
  78   43   44 1
  79   44   45 2
  80   44   47 1
  81   45   46 1
  82   45   86 1
  83   47   48 1
  84   47   49 1
  85   47   87 1
  86   48   88 1
  87   48   89 1
  88   48   90 1
  89   49   91 1
  90   49   92 1
  91   49   93 1
  92   50   54 1
  93   50   94 1
  94   50   95 1
  95   51   52 1
  96   51   53 1
  97   51   96 1
  98   52   97 1
  99   52   98 1
 100   52   99 1
 101   53  100 1
 102   53  101 1
 103   53  102 1
 104   54   55 1
 105   54   56 1
 106   55   59 1
 107   55  103 1
 108   55  104 1
 109   56   57 1
 110   56  105 1
 111   56  106 1
 112   57   58 1
 113   57  107 1
 114   57  108 1
 115   58   59 1
 116   59  109 1
 117   59  110 1

#	End of record

