#	Name: ASD01840510
#	Creating user name:	WinNT
#	Creation time:	15. 06. 2019 19:37

#	Modifying user name:	WinNT
#	Modification time:	15. 06. 2019 19:37

#	Program:	/corina/corina34_cracker 3.40 0067  02.08.2006

@<TRIPOS>MOLECULE
ASD01840510
  37   40    0    0    0
SMALL
NO_CHARGES


@<TRIPOS>ATOM
   1 C1            -0.0184     1.5028     0.0103 C.3     
   2 C2             0.0021    -0.0041     0.0020 C.ar    
   3 N3             0.0056    -0.6576    -1.1456 N.ar    
   4 N4             0.0231    -1.9361    -1.2106 N.ar    
   5 C5             0.0392    -2.7077    -0.1197 C.ar    
   6 S6             0.0644    -4.4572     0.0312 S.3     
   7 C7             0.0720    -4.3981     1.7843 C.ar    
   8 C8             0.0917    -5.4289     2.7319 C.ar    
   9 N9             0.0942    -5.1217     4.0152 N.ar    
  10 C10            0.0785    -3.8625     4.4114 C.ar    
  11 N11            0.0593    -2.8634     3.5626 N.ar    
  12 C12            0.0558    -3.0826     2.2355 C.ar    
  13 C13            0.0369    -2.1086     1.1378 C.ar    
  14 C14            0.0228    -0.6999     1.1935 C.ar    
  15 C15            0.0250     0.0244     2.5150 C.3     
  16 C16            0.1094    -6.8701     2.2919 C.3     
  17 C17            1.3667    -7.5563     2.8348 C.3     
  18 C18            1.3367    -9.0377     2.4497 C.3     
  19 O19            0.1462    -9.6382     2.9637 O.3     
  20 C20           -1.0614    -9.0685     2.4543 C.3     
  21 C21           -1.1278    -7.5883     2.8396 C.3     
  22 H22            1.0042     1.8801     0.0026 H       
  23 H23           -0.5455     1.8639    -0.8728 H       
  24 H24           -0.5286     1.8543     0.9071 H       
  25 H25            0.0811    -3.6482     5.4700 H       
  26 H26           -1.0020     0.1847     2.8432 H       
  27 H27            0.5541    -0.5742     3.2565 H       
  28 H28            0.5245     0.9866     2.4012 H       
  29 H29            0.1071    -6.9190     1.2030 H       
  30 H30            2.2519    -7.0864     2.4063 H       
  31 H31            1.3928    -7.4626     3.9204 H       
  32 H32            1.3515    -9.1314     1.3638 H       
  33 H33            2.2079    -9.5402     2.8700 H       
  34 H34           -1.0779    -9.1625     1.3685 H       
  35 H35           -1.9177    -9.5931     2.8779 H       
  36 H36           -1.1521    -7.4953     3.9254 H       
  37 H37           -2.0265    -7.1413     2.4146 H       
@<TRIPOS>BOND
   1    1    2 1
   2    1   22 1
   3    1   23 1
   4    1   24 1
   5    2   14 ar
   6    2    3 ar
   7    3    4 ar
   8    4    5 ar
   9    5   13 ar
  10    5    6 1
  11    6    7 1
  12    7   12 ar
  13    7    8 ar
  14    8    9 ar
  15    8   16 1
  16    9   10 ar
  17   10   11 ar
  18   10   25 1
  19   11   12 ar
  20   12   13 1
  21   13   14 ar
  22   14   15 1
  23   15   26 1
  24   15   27 1
  25   15   28 1
  26   16   21 1
  27   16   17 1
  28   16   29 1
  29   17   18 1
  30   17   30 1
  31   17   31 1
  32   18   19 1
  33   18   32 1
  34   18   33 1
  35   19   20 1
  36   20   21 1
  37   20   34 1
  38   20   35 1
  39   21   36 1
  40   21   37 1

#	End of record

