#	Name: ASD01917894
#	Creating user name:	WinNT
#	Creation time:	15. 06. 2019 20:10

#	Modifying user name:	WinNT
#	Modification time:	15. 06. 2019 20:10

#	Program:	/corina/corina34_cracker 3.40 0067  02.08.2006

@<TRIPOS>MOLECULE
ASD01917894
  45   49    0    0    0
SMALL
NO_CHARGES


@<TRIPOS>ATOM
   1 C1            -0.0071     1.3084    -0.0305 C.2     
   2 C2            -0.0068    -0.0377    -0.0230 C.2     
   3 C3            -1.2824    -0.8657     0.0036 C.3     
   4 C4            -2.4385     0.0102     0.4922 C.3     
   5 N5            -2.4056     1.2944    -0.2239 N.am    
   6 C6            -1.2453     2.1749    -0.0020 C.3     
   7 C7            -3.4039     1.6536    -1.0549 C.2     
   8 O8            -4.2983     0.8688    -1.3058 O.2     
   9 S9             1.6577     1.8717    -0.0710 S.3     
  10 C10            2.2123     0.2549    -0.0696 C.2     
  11 N11            1.2137    -0.5558    -0.0427 N.2     
  12 C12            3.6607    -0.1605    -0.0967 C.3     
  13 O13            4.0904    -0.3021    -1.4521 O.3     
  14 C14            5.3815    -0.6749    -1.6543 C.ar    
  15 C15            5.8657    -0.8312    -2.9450 C.ar    
  16 C16            7.1785    -1.2103    -3.1478 C.ar    
  17 C17            8.0098    -1.4339    -2.0659 C.ar    
  18 C18            7.5296    -1.2793    -0.7785 C.ar    
  19 C19            6.2192    -0.8943    -0.5704 C.ar    
  20 C20           -3.4117     2.9980    -1.6599 C.2     
  21 N21           -2.5762     3.9822    -1.4072 N.2     
  22 N22           -2.8462     5.0302    -2.0971 N.pl3   
  23 C23           -3.9324     4.8297    -2.9059 C.ar    
  24 C24           -4.3494     3.5044    -2.6694 C.ar    
  25 N25           -4.5890     5.5778    -3.7818 N.ar    
  26 C26           -5.6312     5.1123    -4.4362 C.ar    
  27 C27           -6.0946     3.8186    -4.2429 C.ar    
  28 C28           -5.4461     2.9928    -3.3589 C.ar    
  29 H29           -1.5008    -1.2309    -0.9999 H       
  30 H30           -1.1543    -1.7107     0.6801 H       
  31 H31           -3.3853    -0.4928     0.2951 H       
  32 H32           -2.3346     0.1870     1.5627 H       
  33 H33           -1.3331     2.6661     0.9671 H       
  34 H34           -1.1909     2.9224    -0.7934 H       
  35 H35            4.2657     0.5987     0.3989 H       
  36 H36            3.7754    -1.1123     0.4221 H       
  37 H37            5.2166    -0.6570    -3.7905 H       
  38 H38            7.5557    -1.3324    -4.1524 H       
  39 H39            9.0358    -1.7302    -2.2265 H       
  40 H40            8.1807    -1.4552     0.0650 H       
  41 H41            5.8446    -0.7737     0.4353 H       
  42 H42           -2.3448     5.8592    -2.0508 H       
  43 H43           -6.1390     5.7534    -5.1416 H       
  44 H44           -6.9528     3.4606    -4.7921 H       
  45 H45           -5.7864     1.9817    -3.1906 H       
@<TRIPOS>BOND
   1    1    2 2
   2    1    9 1
   3    1    6 1
   4    2    3 1
   5    2   11 1
   6    3    4 1
   7    3   29 1
   8    3   30 1
   9    4    5 1
  10    4   31 1
  11    4   32 1
  12    5    6 1
  13    5    7 am
  14    6   33 1
  15    6   34 1
  16    7    8 2
  17    7   20 1
  18    9   10 1
  19   10   11 2
  20   10   12 1
  21   12   13 1
  22   12   35 1
  23   12   36 1
  24   13   14 1
  25   14   15 ar
  26   14   19 ar
  27   15   16 ar
  28   15   37 1
  29   16   17 ar
  30   16   38 1
  31   17   18 ar
  32   17   39 1
  33   18   19 ar
  34   18   40 1
  35   19   41 1
  36   20   21 2
  37   20   24 1
  38   21   22 1
  39   22   23 1
  40   22   42 1
  41   23   25 ar
  42   23   24 ar
  43   24   28 ar
  44   25   26 ar
  45   26   27 ar
  46   26   43 1
  47   27   28 ar
  48   27   44 1
  49   28   45 1

#	End of record

