#	Name: ASD03331129
#	Creating user name:	WinNT
#	Creation time:	15. 06. 2019 20:38

#	Modifying user name:	WinNT
#	Modification time:	15. 06. 2019 20:38

#	Program:	/corina/corina34_cracker 3.40 0067  02.08.2006

@<TRIPOS>MOLECULE
ASD03331129
  30   31    0    0    0
SMALL
NO_CHARGES


@<TRIPOS>ATOM
   1 N1            -0.0459     1.4956     0.5698 N.am    
   2 C2             0.0019     0.1506     1.1632 C.3     
   3 C3             0.5966    -0.8151     0.1327 C.3     
   4 N4             1.8894    -0.2950    -0.3322 N.3     
   5 C5             1.7288     0.9911    -1.0237 C.3     
   6 C6             1.1805     2.0309    -0.0406 C.3     
   7 C7            -1.1849     2.2161     0.5803 C.2     
   8 O8            -2.2139     1.7207     0.9974 O.2     
   9 N9            -1.1831     3.4859     0.1284 N.am    
  10 C10           -2.3851     4.1963     0.0330 C.ar    
  11 C11           -2.4015     5.5681     0.2481 C.ar    
  12 C12           -3.5892     6.2664     0.1527 C.ar    
  13 C13           -4.7613     5.6010    -0.1566 C.ar    
  14 C14           -4.7483     4.2350    -0.3714 C.ar    
  15 C15           -3.5629     3.5318    -0.2826 C.ar    
  16 H16            0.6285     0.1659     2.0549 H       
  17 H17           -1.0063    -0.1697     1.4260 H       
  18 H18            0.7419    -1.7929     0.5920 H       
  19 H19           -0.0837    -0.9080    -0.7138 H       
  20 H20            2.5431    -0.2153     0.4323 H       
  21 H21            2.6951     1.3233    -1.4030 H       
  22 H22            1.0326     0.8731    -1.8541 H       
  23 H23            0.9515     2.9537    -0.5736 H       
  24 H24            1.9203     2.2269     0.7355 H       
  25 H25           -0.3488     3.9073    -0.1307 H       
  26 H26           -1.4865     6.0883     0.4900 H       
  27 H27           -3.6027     7.3332     0.3202 H       
  28 H28           -5.6889     6.1492    -0.2303 H       
  29 H29           -5.6653     3.7181    -0.6128 H       
  30 H30           -3.5526     2.4657    -0.4549 H       
@<TRIPOS>BOND
   1    1    2 1
   2    1    6 1
   3    1    7 am
   4    2    3 1
   5    2   16 1
   6    2   17 1
   7    3    4 1
   8    3   18 1
   9    3   19 1
  10    4    5 1
  11    4   20 1
  12    5    6 1
  13    5   21 1
  14    5   22 1
  15    6   23 1
  16    6   24 1
  17    7    8 2
  18    7    9 am
  19    9   10 1
  20    9   25 1
  21   10   11 ar
  22   10   15 ar
  23   11   12 ar
  24   11   26 1
  25   12   13 ar
  26   12   27 1
  27   13   14 ar
  28   13   28 1
  29   14   15 ar
  30   14   29 1
  31   15   30 1

#	End of record

