#	Name: ASD01915018
#	Creating user name:	WinNT
#	Creation time:	15. 06. 2019 20:04

#	Modifying user name:	WinNT
#	Modification time:	15. 06. 2019 20:04

#	Program:	/corina/corina34_cracker 3.40 0067  02.08.2006

@<TRIPOS>MOLECULE
ASD01915018
  43   46    0    0    0
SMALL
NO_CHARGES


@<TRIPOS>ATOM
   1 C1            -0.2248     1.4606    -1.1263 C.ar    
   2 C2            -0.2363     0.0855    -1.2805 C.ar    
   3 C3             0.9616    -0.6064    -1.1443 C.ar    
   4 C4             2.1185     0.0955    -0.8612 C.ar    
   5 N5             2.0954     1.4075    -0.7197 N.ar    
   6 C6             0.9754     2.0994    -0.8425 C.ar    
   7 O7             0.9988     3.4478    -0.6896 O.3     
   8 C8             2.2636     4.0458    -0.3987 C.3     
   9 C9             2.0949     5.5373    -0.2642 C.2     
  10 C10            0.8929     6.2459    -0.3940 C.2     
  11 N11            3.0471     6.4012     0.0008 N.2     
  12 C12            1.2294     7.5546    -0.1940 C.2     
  13 C13            0.4213     8.7834    -0.1951 C.2     
  14 N14            2.5832     7.5879     0.0587 N.pl3   
  15 C15            3.2696     8.8513     0.3543 C.3     
  16 C16            2.5534     9.9939    -0.3643 C.3     
  17 N17            1.1055     9.9530    -0.1745 N.am    
  18 O18           -0.7945     8.7517    -0.2139 O.2     
  19 C19            3.2480     9.1036     1.8633 C.3     
  20 F20            0.9948    -1.9495    -1.2866 F       
  21 C21            0.4104    11.1476     0.0381 C.ar    
  22 C22            0.3126    12.0867    -0.9810 C.ar    
  23 C23           -0.3748    13.2654    -0.7687 C.ar    
  24 C24           -0.9655    13.5124     0.4571 C.ar    
  25 C25           -0.8699    12.5796     1.4748 C.ar    
  26 C26           -0.1883    11.3950     1.2663 C.ar    
  27 Cl27          -1.6124    12.8940     3.0122 Cl      
  28 H28           -1.1365     2.0302    -1.2297 H       
  29 H29           -1.1547    -0.4381    -1.5012 H       
  30 H30            3.0524    -0.4362    -0.7542 H       
  31 H31            2.6521     3.6385     0.5347 H       
  32 H32            2.9619     3.8307    -1.2076 H       
  33 H33           -0.0869     5.8445    -0.6066 H       
  34 H34            4.3018     8.7943     0.0089 H       
  35 H35            2.9318    10.9423     0.0170 H       
  36 H36            2.7726     9.9322    -1.4302 H       
  37 H37            3.7555     8.2862     2.3756 H       
  38 H38            3.7578    10.0418     2.0821 H       
  39 H39            2.2153     9.1624     2.2071 H       
  40 H40            0.7741    11.8953    -1.9384 H       
  41 H41           -0.4509    13.9956    -1.5608 H       
  42 H42           -1.5022    14.4352     0.6206 H       
  43 H43           -0.1178    10.6650     2.0590 H       
@<TRIPOS>BOND
   1    1    2 ar
   2    1    6 ar
   3    1   28 1
   4    2    3 ar
   5    2   29 1
   6    3    4 ar
   7    3   20 1
   8    4    5 ar
   9    4   30 1
  10    5    6 ar
  11    6    7 1
  12    7    8 1
  13    8    9 1
  14    8   31 1
  15    8   32 1
  16    9   11 2
  17    9   10 1
  18   10   12 2
  19   10   33 1
  20   11   14 1
  21   12   14 1
  22   12   13 1
  23   13   17 am
  24   13   18 2
  25   14   15 1
  26   15   16 1
  27   15   19 1
  28   15   34 1
  29   16   17 1
  30   16   35 1
  31   16   36 1
  32   17   21 1
  33   19   37 1
  34   19   38 1
  35   19   39 1
  36   21   22 ar
  37   21   26 ar
  38   22   23 ar
  39   22   40 1
  40   23   24 ar
  41   23   41 1
  42   24   25 ar
  43   24   42 1
  44   25   26 ar
  45   25   27 1
  46   26   43 1

#	End of record

