#	Name: ASD01884624
#	Creating user name:	WinNT
#	Creation time:	15. 06. 2019 19:48

#	Modifying user name:	WinNT
#	Modification time:	15. 06. 2019 19:48

#	Program:	/corina/corina34_cracker 3.40 0067  02.08.2006

@<TRIPOS>MOLECULE
ASD01884624
  37   39    0    0    0
SMALL
NO_CHARGES


@<TRIPOS>ATOM
   1 C1            -0.0164     1.3575     0.0095 C.2     
   2 C2             0.0021    -0.0041     0.0020 C.2     
   3 C3             1.2441    -0.6750    -0.0134 C.2     
   4 C4             2.4025     0.0467    -0.0206 C.2     
   5 N5             2.3701     1.4021    -0.0126 N.am    
   6 C6             1.1988     2.0651     0.0017 C.2     
   7 O7             1.1914     3.2854     0.0087 O.2     
   8 C8             3.6267     2.1552    -0.0196 C.3     
   9 C9             1.2899    -2.1582    -0.0214 C.ar    
  10 C10            4.0449     2.4215    -1.4427 C.ar    
  11 C11            3.4610     3.4561    -2.1536 C.ar    
  12 C12            3.8458     3.7001    -3.4611 C.ar    
  13 C13            4.8128     2.9101    -4.0554 C.ar    
  14 C14            5.3953     1.8763    -3.3433 C.ar    
  15 C15            5.0153     1.6363    -2.0364 C.ar    
  16 Cl16           5.2955     3.2147    -5.6948 Cl      
  17 F17            2.5162     4.2270    -1.5721 F       
  18 C18            1.8315    -2.8462     1.0629 C.ar    
  19 C19            1.8732    -4.2265     1.0545 C.ar    
  20 C20            1.3789    -4.9301    -0.0270 C.ar    
  21 C21            0.8373    -4.2522    -1.1131 C.ar    
  22 C22            0.7867    -2.8663    -1.1096 C.ar    
  23 N23            0.3395    -4.9669    -2.2052 N.pl3   
  24 H24           -0.9563     1.8894     0.0169 H       
  25 H25           -0.9217    -0.5636     0.0082 H       
  26 H26            3.3529    -0.4662    -0.0325 H       
  27 H27            3.4856     3.1024     0.5010 H       
  28 H28            4.4004     1.5756     0.4840 H       
  29 H29            3.3907     4.5068    -4.0167 H       
  30 H30            6.1505     1.2595    -3.8077 H       
  31 H31            5.4705     0.8293    -1.4815 H       
  32 H32            2.2192    -2.2997     1.9099 H       
  33 H33            2.2936    -4.7575     1.8957 H       
  34 H34            1.4138    -6.0095    -0.0288 H       
  35 H35            0.3661    -2.3376    -1.9521 H       
  36 H36            0.3716    -5.9363    -2.2059 H       
  37 H37           -0.0384    -4.4936    -2.9630 H       
@<TRIPOS>BOND
   1    1    2 2
   2    1    6 1
   3    1   24 1
   4    2    3 1
   5    2   25 1
   6    3    4 2
   7    3    9 1
   8    4    5 1
   9    4   26 1
  10    5    6 am
  11    5    8 1
  12    6    7 2
  13    8   10 1
  14    8   27 1
  15    8   28 1
  16    9   18 ar
  17    9   22 ar
  18   10   11 ar
  19   10   15 ar
  20   11   12 ar
  21   11   17 1
  22   12   13 ar
  23   12   29 1
  24   13   14 ar
  25   13   16 1
  26   14   15 ar
  27   14   30 1
  28   15   31 1
  29   18   19 ar
  30   18   32 1
  31   19   20 ar
  32   19   33 1
  33   20   21 ar
  34   20   34 1
  35   21   22 ar
  36   21   23 1
  37   22   35 1
  38   23   36 1
  39   23   37 1

#	End of record

