#	Name: ASD01910786
#	Creating user name:	WinNT
#	Creation time:	15. 06. 2019 19:56

#	Modifying user name:	WinNT
#	Modification time:	15. 06. 2019 19:56

#	Program:	/corina/corina34_cracker 3.40 0067  02.08.2006

@<TRIPOS>MOLECULE
ASD01910786
  52   55    0    0    0
SMALL
NO_CHARGES


@<TRIPOS>ATOM
   1 C1            -0.1035     1.7572     0.3944 C.ar    
   2 C2            -0.0084     0.3722     0.4094 C.ar    
   3 C3            -1.1745    -0.3703     0.3557 C.ar    
   4 C4            -2.3958     0.2921     0.2890 C.ar    
   5 N5            -2.4448     1.6154     0.2763 N.ar    
   6 C6            -1.3495     2.3489     0.3327 C.ar    
   7 N7            -3.5752    -0.4414     0.2346 N.3     
   8 C8            -4.7443     0.4456     0.1688 C.3     
   9 C9            -6.0044    -0.3926    -0.0717 C.3     
  10 N10           -6.0742    -1.4380     0.9605 N.am    
  11 C11           -4.8883    -2.2799     1.1796 C.3     
  12 C12           -3.6722    -1.3674     1.3708 C.3     
  13 C13           -7.1954    -1.6199     1.6861 C.2     
  14 C14           -7.2890    -2.7540     2.6304 C.ar    
  15 O15           -8.1295    -0.8518     1.5643 O.2     
  16 C16           -7.9070    -2.5823     3.8710 C.ar    
  17 C17           -7.9962    -3.6401     4.7546 C.ar    
  18 C18           -7.4761    -4.8738     4.4193 C.ar    
  19 C19           -6.8545    -5.0603     3.1806 C.ar    
  20 C20           -6.7660    -3.9973     2.2820 C.ar    
  21 C21           -6.3147    -6.3405     2.8337 C.1     
  22 C22           -5.8722    -7.3901     2.5494 C.1     
  23 C23           -5.3324    -8.6703     2.2025 C.ar    
  24 C24           -4.7110    -8.8584     0.9651 C.ar    
  25 C25           -4.1931   -10.0941     0.6381 C.ar    
  26 C26           -4.2880   -11.1463     1.5318 C.ar    
  27 C27           -4.9024   -10.9677     2.7588 C.ar    
  28 C28           -5.4195    -9.7360     3.1021 C.ar    
  29 C29            1.1403     2.6062     0.4511 C.3     
  30 F30            1.5919     2.8592    -0.8486 F       
  31 F31            0.8494     3.8175     1.0879 F       
  32 F32            2.1342     1.9300     1.1668 F       
  33 H33            0.9542    -0.1147     0.4614 H       
  34 H34           -1.1371    -1.4496     0.3652 H       
  35 H35           -1.4280     3.4259     0.3202 H       
  36 H36           -4.8425     0.9883     1.1090 H       
  37 H37           -4.6174     1.1546    -0.6493 H       
  38 H38           -6.8861     0.2451    -0.0073 H       
  39 H39           -5.9543    -0.8544    -1.0578 H       
  40 H40           -5.0321    -2.8901     2.0713 H       
  41 H41           -4.7309    -2.9231     0.3138 H       
  42 H42           -2.7677    -1.9733     1.4245 H       
  43 H43           -3.7852    -0.7994     2.2943 H       
  44 H44           -8.3160    -1.6197     4.1403 H       
  45 H45           -8.4750    -3.5011     5.7127 H       
  46 H46           -7.5489    -5.6965     5.1151 H       
  47 H47           -6.2872    -4.1353     1.3238 H       
  48 H48           -4.6369    -8.0382     0.2664 H       
  49 H49           -3.7125   -10.2409    -0.3178 H       
  50 H50           -3.8809   -12.1119     1.2702 H       
  51 H51           -4.9735   -11.7937     3.4509 H       
  52 H52           -5.8987    -9.5981     4.0600 H       
@<TRIPOS>BOND
   1    1    2 ar
   2    1   29 1
   3    1    6 ar
   4    2    3 ar
   5    2   33 1
   6    3    4 ar
   7    3   34 1
   8    4    5 ar
   9    4    7 1
  10    5    6 ar
  11    6   35 1
  12    7    8 1
  13    7   12 1
  14    8    9 1
  15    8   36 1
  16    8   37 1
  17    9   10 1
  18    9   38 1
  19    9   39 1
  20   10   11 1
  21   10   13 am
  22   11   12 1
  23   11   40 1
  24   11   41 1
  25   12   42 1
  26   12   43 1
  27   13   14 1
  28   13   15 2
  29   14   16 ar
  30   14   20 ar
  31   16   17 ar
  32   16   44 1
  33   17   18 ar
  34   17   45 1
  35   18   19 ar
  36   18   46 1
  37   19   20 ar
  38   19   21 1
  39   20   47 1
  40   21   22 3
  41   22   23 1
  42   23   24 ar
  43   23   28 ar
  44   24   25 ar
  45   24   48 1
  46   25   26 ar
  47   25   49 1
  48   26   27 ar
  49   26   50 1
  50   27   28 ar
  51   27   51 1
  52   28   52 1
  53   29   30 1
  54   29   31 1
  55   29   32 1

#	End of record

