#	Name: ASD01820096
#	Creating user name:	WinNT
#	Creation time:	15. 06. 2019 19:36

#	Modifying user name:	WinNT
#	Modification time:	15. 06. 2019 19:36

#	Program:	/corina/corina34_cracker 3.40 0067  02.08.2006

@<TRIPOS>MOLECULE
ASD01820096
  44   46    0    0    0
SMALL
NO_CHARGES


@<TRIPOS>ATOM
   1 O1            -0.0176     1.4478     0.0100 O.3     
   2 O2             2.1921     1.4292    -0.0112 O.2     
   3 O3            -0.8743     3.7988    -1.1613 O.3     
   4 N4            -2.4056    -0.8646    -1.3762 N.3     
   5 C5            -2.4886    -0.1559    -0.0713 C.3     
   6 C6            -1.3359    -0.1291    -2.1017 C.3     
   7 C7            -2.3777     1.3405    -0.4440 C.3     
   8 C8            -1.6159     1.3582    -1.7856 C.3     
   9 C9            -1.2346    -0.5343     0.7331 C.3     
  10 C10            0.0018    -0.5055    -1.4449 C.3     
  11 C11            0.0021    -0.0041     0.0020 C.3     
  12 C12           -3.6817    -0.7867    -2.0996 C.3     
  13 C13            1.1699     2.0734     0.0020 C.2     
  14 C14            1.2284     3.5792     0.0096 C.3     
  15 C15            2.6676     4.0261    -0.0018 C.ar    
  16 C16            0.5156     4.1235    -1.2300 C.3     
  17 C17            3.1600     4.7972     1.0345 C.ar    
  18 C18            3.4967     3.6603    -1.0456 C.ar    
  19 C19            4.4801     5.2072     1.0240 C.ar    
  20 C20            4.8168     4.0702    -1.0560 C.ar    
  21 C21            5.3079     4.8457    -0.0224 C.ar    
  22 H22           -3.4123    -0.3805     0.4620 H       
  23 H23           -1.3490    -0.3324    -3.1725 H       
  24 H24           -3.3696     1.7757    -0.5652 H       
  25 H25           -1.8160     1.8806     0.3183 H       
  26 H26           -0.6798     1.9070    -1.6830 H       
  27 H27           -2.2333     1.8023    -2.5665 H       
  28 H28           -1.2902    -0.0893     1.7266 H       
  29 H29           -1.1702    -1.6189     0.8201 H       
  30 H30            0.1218    -1.5889    -1.4559 H       
  31 H31            0.8212    -0.0402    -1.9927 H       
  32 H32            0.9011    -0.3573     0.5072 H       
  33 H33           -3.9314     0.2581    -2.2846 H       
  34 H34           -3.5933    -1.3129    -3.0501 H       
  35 H35           -4.4675    -1.2475    -1.5010 H       
  36 H36            0.7376     3.9574     0.9063 H       
  37 H37            0.9494     3.6762    -2.1244 H       
  38 H38            0.6341     5.2062    -1.2713 H       
  39 H39            2.5133     5.0796     1.8521 H       
  40 H40            3.1132     3.0539    -1.8529 H       
  41 H41           -1.3896     4.1137    -1.9165 H       
  42 H42            4.8647     5.8102     1.8333 H       
  43 H43            5.4647     3.7841    -1.8714 H       
  44 H44            6.3392     5.1663    -0.0307 H       
@<TRIPOS>BOND
   1    1   11 1
   2    1   13 1
   3    2   13 2
   4    3   16 1
   5    3   41 1
   6    4    5 1
   7    4    6 1
   8    4   12 1
   9    5    7 1
  10    5    9 1
  11    5   22 1
  12    6    8 1
  13    6   10 1
  14    6   23 1
  15    7    8 1
  16    7   24 1
  17    7   25 1
  18    8   26 1
  19    8   27 1
  20    9   11 1
  21    9   28 1
  22    9   29 1
  23   10   11 1
  24   10   30 1
  25   10   31 1
  26   11   32 1
  27   12   33 1
  28   12   34 1
  29   12   35 1
  30   13   14 1
  31   14   15 1
  32   14   16 1
  33   14   36 1
  34   15   17 ar
  35   15   18 ar
  36   16   37 1
  37   16   38 1
  38   17   19 ar
  39   17   39 1
  40   18   20 ar
  41   18   40 1
  42   19   21 ar
  43   19   42 1
  44   20   21 ar
  45   20   43 1
  46   21   44 1

#	End of record

