#	Name: ASD07931858
#	Creating user name:	WinNT
#	Creation time:	15. 06. 2019 21:13

#	Modifying user name:	WinNT
#	Modification time:	15. 06. 2019 21:13

#	Program:	/corina/corina34_cracker 3.40 0067  02.08.2006

@<TRIPOS>MOLECULE
ASD07931858
  35   36    0    0    0
SMALL
NO_CHARGES


@<TRIPOS>ATOM
   1 C1            -0.1628     1.5306     0.1165 C.3     
   2 C2            -0.0997     0.0024     0.0749 C.3     
   3 N3             0.5395    -0.4947     1.3006 N.3     
   4 C4             0.6176    -1.9617     1.2958 C.3     
   5 C5             1.7516    -2.5210     2.1710 C.3     
   6 C6             0.7691    -3.6226     2.6024 C.3     
   7 C7            -0.3616    -2.6339     2.2725 C.3     
   8 O8             2.1368    -1.6486     3.2353 O.3     
   9 C9             3.3898    -1.8044     3.7378 C.ar    
  10 C10            3.8710    -0.9191     4.6918 C.ar    
  11 C11            5.1448    -1.0795     5.2010 C.ar    
  12 C12            5.9407    -2.1212     4.7605 C.ar    
  13 C13            5.4638    -3.0043     3.8099 C.ar    
  14 C14            4.1878    -2.8520     3.3022 C.ar    
  15 C15            3.0046     0.2168     5.1715 C.3     
  16 F16            3.7031     0.9657     6.1246 F       
  17 F17            2.6689     1.0367     4.0887 F       
  18 F18            1.8375    -0.2975     5.7464 F       
  19 O19            1.1631     2.0629     0.0940 O.3     
  20 H20           -0.7154     1.8950    -0.7495 H       
  21 H21           -0.6667     1.8487     1.0292 H       
  22 H22           -1.1096    -0.4011     0.0025 H       
  23 H23            0.4810    -0.3138    -0.7916 H       
  24 H24            1.4530    -0.0844     1.4241 H       
  25 H25            0.5919    -2.3846     0.2915 H       
  26 H26            2.6014    -2.8935     1.5990 H       
  27 H27            0.7848    -4.4996     1.9554 H       
  28 H28            0.8334    -3.8750     3.6609 H       
  29 H29           -0.6456    -1.9993     3.1121 H       
  30 H30           -1.2179    -3.0975     1.7825 H       
  31 H31            5.5198    -0.3907     5.9435 H       
  32 H32            6.9366    -2.2447     5.1596 H       
  33 H33            6.0874    -3.8168     3.4672 H       
  34 H34            3.8139    -3.5451     2.5631 H       
  35 H35            1.1996     3.0289     0.1182 H       
@<TRIPOS>BOND
   1    1    2 1
   2    1   19 1
   3    1   20 1
   4    1   21 1
   5    2    3 1
   6    2   22 1
   7    2   23 1
   8    3    4 1
   9    3   24 1
  10    4    5 1
  11    4    7 1
  12    4   25 1
  13    5    6 1
  14    5    8 1
  15    5   26 1
  16    6    7 1
  17    6   27 1
  18    6   28 1
  19    7   29 1
  20    7   30 1
  21    8    9 1
  22    9   10 ar
  23    9   14 ar
  24   10   11 ar
  25   10   15 1
  26   11   12 ar
  27   11   31 1
  28   12   13 ar
  29   12   32 1
  30   13   14 ar
  31   13   33 1
  32   14   34 1
  33   15   16 1
  34   15   17 1
  35   15   18 1
  36   19   35 1

#	End of record

