#	Name: ASD00450077
#	Creating user name:	WinNT
#	Creation time:	15. 06. 2019 18:36

#	Modifying user name:	WinNT
#	Modification time:	15. 06. 2019 18:36

#	Program:	/corina/corina34_cracker 3.40 0067  02.08.2006

@<TRIPOS>MOLECULE
ASD00450077
  47   49    0    0    0
SMALL
NO_CHARGES


@<TRIPOS>ATOM
   1 C1             0.0161     1.2148    -0.0672 C.ar    
   2 C2            -0.0376    -0.1844     0.0287 C.ar    
   3 C3             1.1291    -0.9076     0.2054 C.ar    
   4 C4             2.3496    -0.2559     0.2881 C.ar    
   5 C5             2.4159     1.1250     0.1949 C.ar    
   6 C6             1.2572     1.8685     0.0176 C.ar    
   7 C7            -1.2174     1.9910    -0.2610 C.2     
   8 O8            -1.8440     2.3882     0.7031 O.2     
   9 N9            -1.6539     2.2626    -1.5069 N.am    
  10 N10            1.3243     3.2545    -0.0764 N.pl3   
  11 C11            2.5404     3.8771    -0.3769 C.ar    
  12 C12            3.0894     3.7567    -1.6492 C.ar    
  13 C13            3.1994     4.6214     0.5925 C.ar    
  14 C14            4.3998     5.2356     0.2929 C.ar    
  15 C15            4.9468     5.1103    -0.9715 C.ar    
  16 C16            4.2915     4.3742    -1.9423 C.ar    
  17 F17            3.4821    -0.9718     0.4612 F       
  18 F18            2.4495     3.0374    -2.5970 F       
  19 I19            6.7675     6.0448    -1.4199 I       
  20 F20            3.6112     1.7493     0.2769 F       
  21 O21           -1.2303    -0.8264    -0.0513 O.3     
  22 C22           -1.2266    -2.1850    -0.0225 C.ar    
  23 C23           -1.0929    -2.8541     1.1854 C.ar    
  24 C24           -1.0895    -4.2354     1.2119 C.ar    
  25 C25           -1.2192    -4.9509     0.0360 C.ar    
  26 C26           -1.3522    -4.2863    -1.1695 C.ar    
  27 C27           -1.3624    -2.9055    -1.2008 C.ar    
  28 C28           -0.9438    -4.9629     2.5236 C.3     
  29 S29           -2.5852    -5.2554     3.2384 S.o2    
  30 O30           -3.1781    -4.0294     3.6440 O.2     
  31 O31           -3.3090    -6.1960     2.4569 O.2     
  32 N32           -2.2816    -6.0517     4.6583 N.am    
  33 H33            1.0884    -1.9843     0.2796 H       
  34 H34           -1.1543     1.9459    -2.2756 H       
  35 H35           -2.4677     2.7747    -1.6348 H       
  36 H36            0.5279     3.7894     0.0665 H       
  37 H37            2.7734     4.7204     1.5800 H       
  38 H38            4.9121     5.8148     1.0469 H       
  39 H39            4.7192     4.2813    -2.9297 H       
  40 H40           -0.9912    -2.2957     2.1043 H       
  41 H41           -1.2163    -6.0306     0.0589 H       
  42 H42           -1.4526    -4.8476    -2.0867 H       
  43 H43           -1.4666    -2.3871    -2.1424 H       
  44 H44           -0.4451    -5.9176     2.3562 H       
  45 H45           -0.3509    -4.3588     3.2103 H       
  46 H46           -1.3681    -6.2492     4.9179 H       
  47 H47           -3.0173    -6.3207     5.2303 H       
@<TRIPOS>BOND
   1    1    2 ar
   2    1    6 ar
   3    1    7 1
   4    2    3 ar
   5    2   21 1
   6    3    4 ar
   7    3   33 1
   8    4    5 ar
   9    4   17 1
  10    5    6 ar
  11    5   20 1
  12    6   10 1
  13    7    8 2
  14    7    9 am
  15    9   34 1
  16    9   35 1
  17   10   11 1
  18   10   36 1
  19   11   13 ar
  20   11   12 ar
  21   12   16 ar
  22   12   18 1
  23   13   14 ar
  24   13   37 1
  25   14   15 ar
  26   14   38 1
  27   15   16 ar
  28   15   19 1
  29   16   39 1
  30   21   22 1
  31   22   23 ar
  32   22   27 ar
  33   23   24 ar
  34   23   40 1
  35   24   25 ar
  36   24   28 1
  37   25   26 ar
  38   25   41 1
  39   26   27 ar
  40   26   42 1
  41   27   43 1
  42   28   29 1
  43   28   44 1
  44   28   45 1
  45   29   30 2
  46   29   31 2
  47   29   32 am
  48   32   46 1
  49   32   47 1

#	End of record

