#	Name: ASD09360003
#	Creating user name:	WinNT
#	Creation time:	15. 06. 2019 21:21

#	Modifying user name:	WinNT
#	Modification time:	15. 06. 2019 21:21

#	Program:	/corina/corina34_cracker 3.40 0067  02.08.2006

@<TRIPOS>MOLECULE
ASD09360003
  79   85    0    0    0
SMALL
NO_CHARGES


@<TRIPOS>ATOM
   1 N1            -0.1218     1.0367     0.1609 N.am    
   2 C2             0.0814    -0.2872     0.0346 C.2     
   3 C3            -1.2020    -0.9728    -0.2200 C.2     
   4 C4            -2.1981    -0.0559    -0.2491 C.2     
   5 C5            -1.5585     1.2901     0.0003 C.3     
   6 C6             0.8597     1.9988     0.4073 C.ar    
   7 C7            -2.1258     1.9097     1.2514 C.ar    
   8 C8            -3.6221    -0.3188    -0.4744 C.2     
   9 O9             1.1616    -0.8378     0.1173 O.2     
  10 O10           -1.3575    -2.3051    -0.3966 O.3     
  11 O11           -4.2609    -0.9527     0.3448 O.2     
  12 C12           -4.2820     0.1855    -1.6959 C.ar    
  13 C13           -3.0156     2.9602     1.1572 C.ar    
  14 C14           -3.5395     3.5322     2.3151 C.ar    
  15 C15           -3.1612     3.0393     3.5620 C.ar    
  16 C16           -2.2704     1.9880     3.6445 C.ar    
  17 C17           -1.7580     1.4205     2.4921 C.ar    
  18 C18            2.1890     1.6152     0.5440 C.ar    
  19 C19            3.1595     2.5634     0.7877 C.ar    
  20 C20            2.8072     3.9079     0.8965 C.ar    
  21 C21            1.4737     4.2905     0.7586 C.ar    
  22 C22            0.5071     3.3398     0.5098 C.ar    
  23 C23           -5.6485    -0.0331    -1.8939 C.ar    
  24 C24           -6.2621     0.4372    -3.0324 C.ar    
  25 C25           -5.5207     1.1318    -3.9892 C.ar    
  26 C26           -4.1564     1.3503    -3.7930 C.ar    
  27 C27           -3.5418     0.8868    -2.6523 C.ar    
  28 C28            3.8498     4.9299     1.1592 C.ar    
  29 C29            3.4995     6.2740     1.2683 C.ar    
  30 C30            4.4745     7.2212     1.5129 C.ar    
  31 C31            5.7970     6.8369     1.6491 C.ar    
  32 C32            6.1497     5.5036     1.5412 C.ar    
  33 C33            5.1827     4.5483     1.3035 C.ar    
  34 Br34           4.0017     9.0461     1.6614 Br      
  35 C35           -4.4963     4.6623     2.2201 C.ar    
  36 C36           -4.9349     5.3059     3.3756 C.ar    
  37 C37           -5.8248     6.3564     3.2820 C.ar    
  38 C38           -6.2821     6.7708     2.0430 C.ar    
  39 C39           -5.8499     6.1345     0.8923 C.ar    
  40 C40           -4.9549     5.0873     0.9748 C.ar    
  41 C41           -6.1829     1.6374    -5.2154 C.ar    
  42 C42           -5.4270     2.2341    -6.2237 C.ar    
  43 C43           -6.0488     2.7025    -7.3630 C.ar    
  44 C44           -7.4195     2.5814    -7.5057 C.ar    
  45 C45           -8.1747     1.9904    -6.5086 C.ar    
  46 C46           -7.5632     1.5130    -5.3673 C.ar    
  47 C47            6.8568     7.8746     1.9154 C.3     
  48 N48           -8.0808     3.0867    -8.7297 N.pl3   
  49 O49           -7.4182     3.6079    -9.6089 O.2     
  50 Br50          -7.5020     8.2106     1.9221 Br      
  51 O51           -9.2874     2.9814    -8.8578 O.2     
  52 H52           -1.7246     1.9478    -0.8529 H       
  53 H53           -0.5332    -2.8079    -0.3427 H       
  54 H54           -3.3053     3.3387     0.1881 H       
  55 H55           -3.5639     3.4791     4.4625 H       
  56 H56           -1.9761     1.6054     4.6106 H       
  57 H57           -1.0612     0.5982     2.5612 H       
  58 H58            2.4615     0.5735     0.4596 H       
  59 H59            4.1919     2.2648     0.8946 H       
  60 H60            1.1988     5.3315     0.8430 H       
  61 H61           -0.5260     3.6358     0.4025 H       
  62 H62           -6.2224    -0.5712    -1.1540 H       
  63 H63           -7.3178     0.2684    -3.1856 H       
  64 H64           -3.5836     1.8873    -4.5346 H       
  65 H65           -2.4860     1.0563    -2.5005 H       
  66 H66            2.4677     6.5747     1.1614 H       
  67 H67            7.1834     5.2093     1.6476 H       
  68 H68            5.4595     3.5077     1.2195 H       
  69 H69           -4.5792     4.9829     4.3429 H       
  70 H70           -6.1653     6.8559     4.1769 H       
  71 H71           -6.2099     6.4612    -0.0721 H       
  72 H72           -4.6182     4.5914     0.0764 H       
  73 H73           -4.3569     2.3297    -6.1130 H       
  74 H74           -5.4644     3.1648    -8.1447 H       
  75 H75           -9.2445     1.8989    -6.6253 H       
  76 H76           -8.1538     1.0515    -4.5898 H       
  77 H77            6.9739     8.0066     2.9910 H       
  78 H78            7.8029     7.5467     1.4846 H       
  79 H79            6.5604     8.8211     1.4633 H       
@<TRIPOS>BOND
   1    1    2 am
   2    1    6 1
   3    1    5 1
   4    2    3 1
   5    2    9 2
   6    3    4 2
   7    3   10 1
   8    4    5 1
   9    4    8 1
  10    5    7 1
  11    5   52 1
  12    6   18 ar
  13    6   22 ar
  14    7   13 ar
  15    7   17 ar
  16    8   11 2
  17    8   12 1
  18   10   53 1
  19   12   23 ar
  20   12   27 ar
  21   13   14 ar
  22   13   54 1
  23   14   15 ar
  24   14   35 1
  25   15   16 ar
  26   15   55 1
  27   16   17 ar
  28   16   56 1
  29   17   57 1
  30   18   19 ar
  31   18   58 1
  32   19   20 ar
  33   19   59 1
  34   20   21 ar
  35   20   28 1
  36   21   22 ar
  37   21   60 1
  38   22   61 1
  39   23   24 ar
  40   23   62 1
  41   24   25 ar
  42   24   63 1
  43   25   26 ar
  44   25   41 1
  45   26   27 ar
  46   26   64 1
  47   27   65 1
  48   28   29 ar
  49   28   33 ar
  50   29   30 ar
  51   29   66 1
  52   30   31 ar
  53   30   34 1
  54   31   32 ar
  55   31   47 1
  56   32   33 ar
  57   32   67 1
  58   33   68 1
  59   35   36 ar
  60   35   40 ar
  61   36   37 ar
  62   36   69 1
  63   37   38 ar
  64   37   70 1
  65   38   39 ar
  66   38   50 1
  67   39   40 ar
  68   39   71 1
  69   40   72 1
  70   41   42 ar
  71   41   46 ar
  72   42   43 ar
  73   42   73 1
  74   43   44 ar
  75   43   74 1
  76   44   45 ar
  77   44   48 1
  78   45   46 ar
  79   45   75 1
  80   46   76 1
  81   47   77 1
  82   47   78 1
  83   47   79 1
  84   48   49 2
  85   48   51 2

#	End of record

