#	Name: ASD03331114
#	Creating user name:	WinNT
#	Creation time:	15. 06. 2019 20:38

#	Modifying user name:	WinNT
#	Modification time:	15. 06. 2019 20:38

#	Program:	/corina/corina34_cracker 3.40 0067  02.08.2006

@<TRIPOS>MOLECULE
ASD03331114
  63   65    0    0    0
SMALL
NO_CHARGES


@<TRIPOS>ATOM
   1 N1             0.5097     1.1007     0.7327 N.pl3   
   2 C2             0.5601    -0.2578     0.7534 C.2     
   3 C3             1.8008    -1.0929     0.5729 C.3     
   4 N4             2.8727    -0.5542     1.4245 N.3     
   5 C5             3.6413     0.4751     0.7220 C.3     
   6 C6             2.7487     1.2709    -0.2261 C.3     
   7 C7             1.6601     1.9943     0.5715 C.3     
   8 C8            -0.7949     1.4637     0.9003 C.2     
   9 N9            -1.5179     0.3771     1.0370 N.2     
  10 C10           -0.7109    -0.7033     0.9540 C.2     
  11 C11           -1.1310    -2.1117     1.0612 C.2     
  12 O12           -0.3064    -3.0009     0.9694 O.2     
  13 N13           -2.4291    -2.4143     1.2611 N.am    
  14 C14            3.7505    -1.6281     1.9084 C.3     
  15 C15            4.9036    -1.0217     2.7107 C.3     
  16 C16           -4.2970    -3.9372     0.9769 C.2     
  17 C17           -2.8467    -3.8145     1.3677 C.3     
  18 C18           -2.6649    -4.2925     2.8097 C.3     
  19 C19           -3.4288    -3.3633     3.7552 C.3     
  20 O20           -5.0526    -3.0044     1.1496 O.2     
  21 N21           -4.7543    -5.0836     0.4355 N.am    
  22 C22           -6.1358    -5.1668    -0.0450 C.3     
  23 C23           -3.2064    -5.7169     2.9469 C.3     
  24 C24           -1.1778    -4.2754     3.1690 C.3     
  25 C25           -1.3084     2.8508     0.9246 C.ar    
  26 C26           -2.6574     3.1023     0.6706 C.ar    
  27 C27           -3.1315     4.3990     0.6951 C.ar    
  28 C28           -2.2680     5.4501     0.9718 C.ar    
  29 C29           -0.9287     5.2038     1.2239 C.ar    
  30 C30           -0.4469     3.9110     1.2073 C.ar    
  31 F31           -2.7356     6.7174     0.9949 F       
  32 F32           -4.4369     4.6450     0.4490 F       
  33 H33            1.5911    -2.1235     0.8593 H       
  34 H34            2.1134    -1.0601    -0.4708 H       
  35 H35            4.0826     1.1534     1.4522 H       
  36 H36            4.4374    -0.0007     0.1494 H       
  37 H37            3.3520     2.0033    -0.7626 H       
  38 H38            2.2836     0.5923    -0.9411 H       
  39 H39            1.3519     2.8922     0.0360 H       
  40 H40            2.0486     2.2688     1.5522 H       
  41 H41           -3.0868    -1.7051     1.3344 H       
  42 H42            3.1803    -2.3039     2.5458 H       
  43 H43            4.1505    -2.1811     1.0586 H       
  44 H44            5.4921    -1.8207     3.1616 H       
  45 H45            5.5376    -0.4332     2.0475 H       
  46 H46            4.5024    -0.3792     3.4945 H       
  47 H47           -2.2381    -4.4269     0.7025 H       
  48 H48           -4.4882    -3.3755     3.4993 H       
  49 H49           -3.2992    -3.7038     4.7825 H       
  50 H50           -3.0430    -2.3485     3.6575 H       
  51 H51           -4.1687    -5.8536     0.3639 H       
  52 H52           -6.3215    -6.1631    -0.4463 H       
  53 H53           -6.8200    -4.9745     0.7814 H       
  54 H54           -6.2936    -4.4246    -0.8276 H       
  55 H55           -2.6940    -6.3700     2.2405 H       
  56 H56           -3.0352    -6.0745     3.9623 H       
  57 H57           -4.2757    -5.7210     2.7357 H       
  58 H58           -0.7921    -3.2607     3.0713 H       
  59 H59           -1.0483    -4.6160     4.1963 H       
  60 H60           -0.6336    -4.9374     2.4954 H       
  61 H61           -3.3290     2.2845     0.4549 H       
  62 H62           -0.2608     6.0250     1.4384 H       
  63 H63            0.5969     3.7204     1.4086 H       
@<TRIPOS>BOND
   1    1    2 1
   2    1    7 1
   3    1    8 1
   4    2    3 1
   5    2   10 2
   6    3    4 1
   7    3   33 1
   8    3   34 1
   9    4    5 1
  10    4   14 1
  11    5    6 1
  12    5   35 1
  13    5   36 1
  14    6    7 1
  15    6   37 1
  16    6   38 1
  17    7   39 1
  18    7   40 1
  19    8    9 2
  20    8   25 1
  21    9   10 1
  22   10   11 1
  23   11   12 2
  24   11   13 am
  25   13   17 1
  26   13   41 1
  27   14   15 1
  28   14   42 1
  29   14   43 1
  30   15   44 1
  31   15   45 1
  32   15   46 1
  33   16   20 2
  34   16   21 am
  35   16   17 1
  36   17   18 1
  37   17   47 1
  38   18   19 1
  39   18   23 1
  40   18   24 1
  41   19   48 1
  42   19   49 1
  43   19   50 1
  44   21   22 1
  45   21   51 1
  46   22   52 1
  47   22   53 1
  48   22   54 1
  49   23   55 1
  50   23   56 1
  51   23   57 1
  52   24   58 1
  53   24   59 1
  54   24   60 1
  55   25   26 ar
  56   25   30 ar
  57   26   27 ar
  58   26   61 1
  59   27   28 ar
  60   27   32 1
  61   28   29 ar
  62   28   31 1
  63   29   30 ar
  64   29   62 1
  65   30   63 1

#	End of record

