#	Name: ASD01815624
#	Creating user name:	WinNT
#	Creation time:	15. 06. 2019 19:33

#	Modifying user name:	WinNT
#	Modification time:	15. 06. 2019 19:33

#	Program:	/corina/corina34_cracker 3.40 0067  02.08.2006

@<TRIPOS>MOLECULE
ASD01815624
  34   36    0    0    0
SMALL
NO_CHARGES


@<TRIPOS>ATOM
   1 C1             1.4509     1.3833    -2.9444 C.ar    
   2 C2             1.4162    -0.0027    -2.8939 C.ar    
   3 C3             2.1411    -0.6913    -1.9433 C.ar    
   4 C4             2.9192     0.0075    -1.0208 C.ar    
   5 C5             2.9517     1.4108    -1.0759 C.ar    
   6 C6             2.2129     2.0929    -2.0427 C.ar    
   7 N7             3.6481    -0.6681    -0.0652 N.pl3   
   8 C8             4.4091    -0.0438     0.8423 C.2     
   9 C9             4.5207     1.3314     0.8879 C.2     
  10 C10            3.7786     2.1378    -0.0946 C.2     
  11 O11            3.8439     3.3546    -0.0966 O.2     
  12 C12            5.3663     1.9794     1.9003 C.2     
  13 O13            5.9749     1.3035     2.7069 O.2     
  14 O14            5.4671     3.3233     1.9345 O.3     
  15 C15            3.5871    -2.1316    -0.0416 C.3     
  16 C16            4.4060    -2.6500     1.1124 C.ar    
  17 C17            3.8315    -2.7811     2.3651 C.ar    
  18 C18            4.5837    -3.2572     3.4252 C.ar    
  19 C19            5.9103    -3.6027     3.2325 C.ar    
  20 C20            6.4846    -3.4725     1.9796 C.ar    
  21 C21            5.7311    -3.0004     0.9185 C.ar    
  22 F22            2.0968    -2.0411    -1.9059 F       
  23 F23            6.2915    -2.8733    -0.3042 F       
  24 F24            2.5368    -2.4439     2.5531 F       
  25 F25            6.6447    -4.0666     4.2672 F       
  26 H26            0.8812     1.9081    -3.6970 H       
  27 H27            0.8151    -0.5484    -3.6062 H       
  28 H28            2.2388     3.1718    -2.0845 H       
  29 H29            4.9535    -0.6358     1.5631 H       
  30 H30            6.0352     3.7036     2.6184 H       
  31 H31            2.5513    -2.4502     0.0758 H       
  32 H32            3.9851    -2.5270    -0.9761 H       
  33 H33            4.1357    -3.3588     4.4026 H       
  34 H34            7.5195    -3.7421     1.8293 H       
@<TRIPOS>BOND
   1    1    2 ar
   2    1    6 ar
   3    1   26 1
   4    2    3 ar
   5    2   27 1
   6    3    4 ar
   7    3   22 1
   8    4    5 ar
   9    4    7 1
  10    5    6 ar
  11    5   10 1
  12    6   28 1
  13    7    8 1
  14    7   15 1
  15    8    9 2
  16    8   29 1
  17    9   10 1
  18    9   12 1
  19   10   11 2
  20   12   13 2
  21   12   14 1
  22   14   30 1
  23   15   16 1
  24   15   31 1
  25   15   32 1
  26   16   17 ar
  27   16   21 ar
  28   17   18 ar
  29   17   24 1
  30   18   19 ar
  31   18   33 1
  32   19   20 ar
  33   19   25 1
  34   20   21 ar
  35   20   34 1
  36   21   23 1

#	End of record

