#	Name: ASD01915174
#	Creating user name:	WinNT
#	Creation time:	15. 06. 2019 20:05

#	Modifying user name:	WinNT
#	Modification time:	15. 06. 2019 20:05

#	Program:	/corina/corina34_cracker 3.40 0067  02.08.2006

@<TRIPOS>MOLECULE
ASD01915174
  39   42    0    0    0
SMALL
NO_CHARGES


@<TRIPOS>ATOM
   1 S1            -0.0172     1.4168     0.0098 S.o2    
   2 O2             0.0021    -0.0041     0.0020 O.2     
   3 N3             1.5649     1.9060    -0.0026 N.am    
   4 C4             2.3041     3.1105     0.4044 C.3     
   5 C5             3.5329     2.2168     0.6223 C.3     
   6 C6             2.8498     1.3246    -0.4196 C.3     
   7 O7             5.1277     3.2164    -1.0831 O.3     
   8 N8             6.2530     3.6673    -1.1201 N.2     
   9 C9             6.7950     3.6208     0.0690 C.2     
  10 N10            5.8801     3.0784     0.9039 N.2     
  11 C11            4.8309     2.8278     0.1610 C.2     
  12 C12            8.1593     4.0775     0.4338 C.ar    
  13 C13            8.9981     4.6198    -0.5376 C.ar    
  14 C14           10.7042     4.9300     1.1162 C.ar    
  15 C15            8.6035     3.9707     1.7499 C.ar    
  16 C16           10.2665     5.0436    -0.1924 C.ar    
  17 C17            9.8731     4.3972     2.0845 C.ar    
  18 Cl18          11.3136     5.7191    -1.4011 Cl      
  19 C19           -0.7287     1.9132    -1.5238 C.ar    
  20 C20           -0.6881     1.0617    -2.6121 C.ar    
  21 C21           -1.2461     1.4505    -3.8153 C.ar    
  22 C22           -1.8454     2.6921    -3.9305 C.ar    
  23 C23           -1.8857     3.5439    -2.8410 C.ar    
  24 C24           -1.3324     3.1517    -1.6366 C.ar    
  25 Cl25          -2.5459     3.1814    -5.4416 Cl      
  26 O26           -0.6652     2.1797     1.0184 O.2     
  27 H27            2.4311     3.8345    -0.4005 H       
  28 H28            1.9272     3.5616     1.3223 H       
  29 H29            3.5921     1.7729     1.6160 H       
  30 H30            2.9360     0.2602    -0.2009 H       
  31 H31            3.1236     1.5681    -1.4462 H       
  32 H32            8.6572     4.7083    -1.5586 H       
  33 H33           11.6968     5.2621     1.3824 H       
  34 H34            7.9555     3.5552     2.5073 H       
  35 H35           10.2194     4.3108     3.1038 H       
  36 H36           -0.2200     0.0926    -2.5221 H       
  37 H37           -1.2140     0.7853    -4.6656 H       
  38 H38           -2.3534     4.5133    -2.9303 H       
  39 H39           -1.3677     3.8147    -0.7849 H       
@<TRIPOS>BOND
   1    1    2 2
   2    1    3 am
   3    1   19 1
   4    1   26 2
   5    3    4 1
   6    3    6 1
   7    4    5 1
   8    4   27 1
   9    4   28 1
  10    5    6 1
  11    5   11 1
  12    5   29 1
  13    6   30 1
  14    6   31 1
  15    7    8 1
  16    7   11 1
  17    8    9 2
  18    9   10 1
  19    9   12 1
  20   10   11 2
  21   12   13 ar
  22   12   15 ar
  23   13   16 ar
  24   13   32 1
  25   14   16 ar
  26   14   17 ar
  27   14   33 1
  28   15   17 ar
  29   15   34 1
  30   16   18 1
  31   17   35 1
  32   19   20 ar
  33   19   24 ar
  34   20   21 ar
  35   20   36 1
  36   21   22 ar
  37   21   37 1
  38   22   23 ar
  39   22   25 1
  40   23   24 ar
  41   23   38 1
  42   24   39 1

#	End of record

