#	Name: ASD04910054
#	Creating user name:	WinNT
#	Creation time:	15. 06. 2019 20:55

#	Modifying user name:	WinNT
#	Modification time:	15. 06. 2019 20:55

#	Program:	/corina/corina34_cracker 3.40 0067  02.08.2006

@<TRIPOS>MOLECULE
ASD04910054
  24   25    0    0    0
SMALL
NO_CHARGES


@<TRIPOS>ATOM
   1 C1            -0.0168     1.3871     0.0097 C.ar    
   2 C2             0.0021    -0.0041     0.0020 C.ar    
   3 C3             1.2137    -0.6877    -0.0128 C.ar    
   4 C4             2.3999     0.0100    -0.0200 C.ar    
   5 C5             2.3861     1.4100    -0.0128 C.ar    
   6 C6             1.1642     2.0935     0.0022 C.ar    
   7 C7             3.6498     2.1596    -0.0199 C.2     
   8 O8             3.6356     3.3723    -0.0137 O.2     
   9 N9            -1.1997    -0.7169     0.0097 N.pl3   
  10 C10           -1.3283    -2.0694     0.0037 C.2     
  11 C11           -2.6505    -2.3550     0.0148 C.2     
  12 C12           -3.3536    -1.1447     0.0280 C.2     
  13 N13           -2.4870    -0.1646     0.0311 N.2     
  14 C14           -3.2595    -3.7334     0.0125 C.3     
  15 F15           -3.4351    -4.1679     1.3307 F       
  16 F16           -4.4991    -3.6946    -0.6348 F       
  17 F17           -2.4095    -4.6176    -0.6606 F       
  18 H18           -0.9598     1.9134     0.0170 H       
  19 H19            1.2234    -1.7676    -0.0183 H       
  20 H20            3.3400    -0.5215    -0.0308 H       
  21 H21            1.1486     3.1734     0.0074 H       
  22 H22            4.5913     1.6306    -0.0307 H       
  23 H23           -0.5211    -2.7868    -0.0082 H       
  24 H24           -4.4282    -1.0381     0.0389 H       
@<TRIPOS>BOND
   1    1    2 ar
   2    1    6 ar
   3    1   18 1
   4    2    3 ar
   5    2    9 1
   6    3    4 ar
   7    3   19 1
   8    4    5 ar
   9    4   20 1
  10    5    6 ar
  11    5    7 1
  12    6   21 1
  13    7    8 2
  14    7   22 1
  15    9   10 1
  16    9   13 1
  17   10   11 2
  18   10   23 1
  19   11   12 1
  20   11   14 1
  21   12   13 2
  22   12   24 1
  23   14   15 1
  24   14   16 1
  25   14   17 1

#	End of record

