#	Name: ASD01903029
#	Creating user name:	WinNT
#	Creation time:	15. 06. 2019 19:54

#	Modifying user name:	WinNT
#	Modification time:	15. 06. 2019 19:54

#	Program:	/corina/corina34_cracker 3.40 0067  02.08.2006

@<TRIPOS>MOLECULE
ASD01903029
  36   38    0    0    0
SMALL
NO_CHARGES


@<TRIPOS>ATOM
   1 C1            -0.0359     1.2388    -0.0428 C.ar    
   2 C2             0.0018    -0.1404    -0.1101 C.ar    
   3 C3             1.1982    -0.8134     0.1016 C.ar    
   4 C4             2.3551    -0.1012     0.3805 C.ar    
   5 C5             2.3183     1.2779     0.4485 C.ar    
   6 C6             1.1229     1.9519     0.2366 C.ar    
   7 N7             1.0855     3.3496     0.3055 N.am    
   8 C8             2.1324     4.0743    -0.1363 C.2     
   9 O9             3.1418     3.5144    -0.5168 O.2     
  10 C10            2.0528     5.5533    -0.1582 C.ar    
  11 O11            1.2351    -2.1710     0.0357 O.3     
  12 C12            2.4436    -2.7828     0.1496 C.ar    
  13 C13            2.9550    -3.0848     1.4056 C.ar    
  14 C14            4.1847    -3.7078     1.5190 C.ar    
  15 C15            4.9050    -4.0300     0.3838 C.ar    
  16 C16            4.3977    -3.7296    -0.8693 C.ar    
  17 C17            3.1654    -3.1116    -0.9879 C.ar    
  18 Cl18          -1.4461    -1.0324    -0.4586 Cl      
  19 N19            0.9479     6.1592     0.2586 N.ar    
  20 C20            0.8365     7.4697     0.2555 C.ar    
  21 C21            1.8765     8.2713    -0.1868 C.ar    
  22 C22            3.0490     7.6797    -0.6309 C.ar    
  23 C23            3.1406     6.2971    -0.6107 C.ar    
  24 F24            2.2518    -2.7698     2.5154 F       
  25 F25            5.1040    -4.0453    -1.9768 F       
  26 H26           -0.9651     1.7627    -0.2117 H       
  27 H27            3.2851    -0.6251     0.5450 H       
  28 H28            3.2194     1.8320     0.6660 H       
  29 H29            0.3061     3.7965     0.6711 H       
  30 H30            4.5827    -3.9424     2.4952 H       
  31 H31            5.8650    -4.5164     0.4744 H       
  32 H32            2.7701    -2.8775    -1.9654 H       
  33 H33           -0.0783     7.9273     0.6022 H       
  34 H34            1.7745     9.3464    -0.1859 H       
  35 H35            3.8738     8.2829    -0.9805 H       
  36 H36            4.0392     5.8028    -0.9494 H       
@<TRIPOS>BOND
   1    1    2 ar
   2    1    6 ar
   3    1   26 1
   4    2    3 ar
   5    2   18 1
   6    3    4 ar
   7    3   11 1
   8    4    5 ar
   9    4   27 1
  10    5    6 ar
  11    5   28 1
  12    6    7 1
  13    7    8 am
  14    7   29 1
  15    8    9 2
  16    8   10 1
  17   10   19 ar
  18   10   23 ar
  19   11   12 1
  20   12   13 ar
  21   12   17 ar
  22   13   14 ar
  23   13   24 1
  24   14   15 ar
  25   14   30 1
  26   15   16 ar
  27   15   31 1
  28   16   17 ar
  29   16   25 1
  30   17   32 1
  31   19   20 ar
  32   20   21 ar
  33   20   33 1
  34   21   22 ar
  35   21   34 1
  36   22   23 ar
  37   22   35 1
  38   23   36 1

#	End of record

