#	Name: ASD01900223
#	Creating user name:	WinNT
#	Creation time:	15. 06. 2019 19:51

#	Modifying user name:	WinNT
#	Modification time:	15. 06. 2019 19:51

#	Program:	/corina/corina34_cracker 3.40 0067  02.08.2006

@<TRIPOS>MOLECULE
ASD01900223
  70   74    0    0    0
SMALL
NO_CHARGES


@<TRIPOS>ATOM
   1 C1             0.1405     0.8620    -0.2660 C.ar    
   2 C2             0.3213    -0.5031    -0.3024 C.ar    
   3 C3             1.6066    -1.0427    -0.4088 C.ar    
   4 C4             2.7172    -0.2020    -0.4732 C.ar    
   5 C5             2.5390     1.1696    -0.4337 C.ar    
   6 C6             1.2444     1.7088    -0.3366 C.ar    
   7 N7             3.6177     2.0468    -0.4783 N.pl3   
   8 C8             3.4192     3.3864    -1.0430 C.3     
   9 N9             2.1610     3.9580    -0.5619 N.am    
  10 C10            1.0942     3.1766    -0.3019 C.2     
  11 C11            4.5825     4.2892    -0.6218 C.3     
  12 C12            3.3859     3.2920    -2.5709 C.3     
  13 C13            3.2500     4.6976    -3.1607 C.3     
  14 N14            4.3847     5.5234    -2.7282 N.3     
  15 C15            4.4116     5.6663    -1.2670 C.3     
  16 C16            2.0639     5.3413    -0.3677 C.ar    
  17 C17            1.4067     6.1297    -1.3032 C.ar    
  18 C18            1.3114     7.4937    -1.1110 C.ar    
  19 C19            1.8723     8.0767     0.0160 C.ar    
  20 C20            2.5289     7.2898     0.9509 C.ar    
  21 C21            2.6197     5.9248     0.7632 C.ar    
  22 C22            2.3791     9.9529     1.3864 C.3     
  23 O23            1.7788     9.4201     0.2041 O.3     
  24 C24            4.3604     6.8370    -3.3853 C.3     
  25 C25            5.4739     7.6927    -2.8387 C.ar    
  26 C26            6.7508     7.5781    -3.3565 C.ar    
  27 C27            7.7737     8.3634    -2.8551 C.ar    
  28 C28            7.5166     9.2651    -1.8332 C.ar    
  29 C29            6.2377     9.3775    -1.3172 C.ar    
  30 C30            5.2165     8.5954    -1.8242 C.ar    
  31 F31            8.5140    10.0327    -1.3418 F       
  32 F32            9.0218     8.2516    -3.3603 F       
  33 C33            1.7890    -2.5102    -0.4529 C.2     
  34 O34            0.0169     3.6767    -0.0415 O.2     
  35 O35            0.7177    -3.3241    -0.3904 O.3     
  36 O36            2.9047    -2.9809    -0.5453 O.2     
  37 C37            0.9717    -4.7529    -0.4389 C.3     
  38 C38            1.1674    -5.2847     0.9823 C.3     
  39 C39           -0.2189    -5.4608    -1.0888 C.3     
  40 H40           -0.8544     1.2747    -0.1875 H       
  41 H41           -0.5343    -1.1599    -0.2480 H       
  42 H42            3.7103    -0.6189    -0.5530 H       
  43 H43            4.4867     1.7773    -0.1420 H       
  44 H44            4.5878     4.3937     0.4632 H       
  45 H45            5.5234     3.8475    -0.9502 H       
  46 H46            4.3091     2.8353    -2.9276 H       
  47 H47            2.5355     2.6840    -2.8796 H       
  48 H48            3.2400     4.6355    -4.2489 H       
  49 H49            2.3200     5.1484    -2.8143 H       
  50 H50            3.4766     6.1125    -0.9284 H       
  51 H51            5.2449     6.3077    -0.9801 H       
  52 H52            0.9707     5.6761    -2.1809 H       
  53 H53            0.8004     8.1070    -1.8384 H       
  54 H54            2.9657     7.7444     1.8279 H       
  55 H55            3.1267     5.3117     1.4936 H       
  56 H56            2.2324    11.0327     1.4133 H       
  57 H57            1.9163     9.5014     2.2639 H       
  58 H58            3.4462     9.7312     1.3837 H       
  59 H59            4.4946     6.7086    -4.4594 H       
  60 H60            3.4027     7.3212    -3.1942 H       
  61 H61            6.9498     6.8752    -4.1520 H       
  62 H62            6.0363    10.0791    -0.5212 H       
  63 H63            4.2176     8.6867    -1.4240 H       
  64 H64            1.8710    -4.9424    -1.0249 H       
  65 H65            0.2681    -5.0952     1.5682 H       
  66 H66            1.3581    -6.3573     0.9459 H       
  67 H67            2.0156    -4.7804     1.4453 H       
  68 H68           -0.3584    -5.0819    -2.1013 H       
  69 H69           -0.0283    -6.5333    -1.1252 H       
  70 H70           -1.1183    -5.2713    -0.5029 H       
@<TRIPOS>BOND
   1    1    2 ar
   2    1    6 ar
   3    1   40 1
   4    2    3 ar
   5    2   41 1
   6    3    4 ar
   7    3   33 1
   8    4    5 ar
   9    4   42 1
  10    5    7 1
  11    5    6 ar
  12    6   10 1
  13    7    8 1
  14    7   43 1
  15    8    9 1
  16    8   12 1
  17    8   11 1
  18    9   10 am
  19    9   16 1
  20   10   34 2
  21   11   15 1
  22   11   44 1
  23   11   45 1
  24   12   13 1
  25   12   46 1
  26   12   47 1
  27   13   14 1
  28   13   48 1
  29   13   49 1
  30   14   15 1
  31   14   24 1
  32   15   50 1
  33   15   51 1
  34   16   17 ar
  35   16   21 ar
  36   17   18 ar
  37   17   52 1
  38   18   19 ar
  39   18   53 1
  40   19   20 ar
  41   19   23 1
  42   20   21 ar
  43   20   54 1
  44   21   55 1
  45   22   23 1
  46   22   56 1
  47   22   57 1
  48   22   58 1
  49   24   25 1
  50   24   59 1
  51   24   60 1
  52   25   26 ar
  53   25   30 ar
  54   26   27 ar
  55   26   61 1
  56   27   28 ar
  57   27   32 1
  58   28   29 ar
  59   28   31 1
  60   29   30 ar
  61   29   62 1
  62   30   63 1
  63   33   35 1
  64   33   36 2
  65   35   37 1
  66   37   38 1
  67   37   39 1
  68   37   64 1
  69   38   65 1
  70   38   66 1
  71   38   67 1
  72   39   68 1
  73   39   69 1
  74   39   70 1

#	End of record

