#	Name: ASD01440131
#	Creating user name:	WinNT
#	Creation time:	15. 06. 2019 19:21

#	Modifying user name:	WinNT
#	Modification time:	15. 06. 2019 19:21

#	Program:	/corina/corina34_cracker 3.40 0067  02.08.2006

@<TRIPOS>MOLECULE
ASD01440131
  40   42    0    0    0
SMALL
NO_CHARGES


@<TRIPOS>ATOM
   1 C1            -0.1280     1.3346     0.0733 C.ar    
   2 C2            -0.0547    -0.0368     0.1677 C.ar    
   3 C3             1.1835    -0.6658     0.2340 C.ar    
   4 C4             2.3525     0.0865     0.2055 C.ar    
   5 C5             2.2884     1.4583     0.1108 C.ar    
   6 C6             1.0452     2.0951     0.0438 C.ar    
   7 C7             0.9715     3.5647    -0.0577 C.2     
   8 O8            -0.1039     4.1102    -0.2139 O.2     
   9 C9             2.2043     4.3739     0.0305 C.ar    
  10 O10            1.2513    -2.0178     0.3274 O.3     
  11 C11            2.5551    -2.5992     0.3918 C.3     
  12 C12            2.4325    -4.0979     0.4915 C.2     
  13 N13            3.5408    -4.8613     0.5646 N.am    
  14 O14            1.3366    -4.6170     0.5060 O.2     
  15 C15            2.7616     4.9319    -1.1226 C.ar    
  16 C16            3.9124     5.6861    -1.0331 C.ar    
  17 C17            4.5164     5.8909     0.1957 C.ar    
  18 C18            3.9711     5.3420     1.3420 C.ar    
  19 C19            2.8155     4.5896     1.2686 C.ar    
  20 Br20           2.0668     3.8463     2.8380 Br      
  21 C21            3.4280    -6.2377     0.7607 C.ar    
  22 C22            4.5709    -7.0145     0.9448 C.ar    
  23 C23            4.4056    -8.3771     1.1356 C.ar    
  24 C24            3.1124    -8.8844     1.1318 C.ar    
  25 N25            2.0873    -8.0743     0.9500 N.ar    
  26 N26            2.2347    -6.8109     0.7782 N.ar    
  27 Cl27           2.8456   -10.5838     1.3655 Cl      
  28 H28           -1.0901     1.8221     0.0177 H       
  29 H29           -0.9602    -0.6249     0.1905 H       
  30 H30            3.3122    -0.4061     0.2580 H       
  31 H31            3.1969     2.0419     0.0891 H       
  32 H32            3.1136    -2.3393    -0.5075 H       
  33 H33            3.0798    -2.2184     1.2680 H       
  34 H34            4.4170    -4.4535     0.4808 H       
  35 H35            2.2922     4.7727    -2.0821 H       
  36 H36            4.3439     6.1179    -1.9239 H       
  37 H37            5.4181     6.4820     0.2593 H       
  38 H38            4.4479     5.5055     2.2972 H       
  39 H39            5.5544    -6.5683     0.9384 H       
  40 H40            5.2569    -9.0253     1.2826 H       
@<TRIPOS>BOND
   1    1    2 ar
   2    1    6 ar
   3    1   28 1
   4    2    3 ar
   5    2   29 1
   6    3    4 ar
   7    3   10 1
   8    4    5 ar
   9    4   30 1
  10    5    6 ar
  11    5   31 1
  12    6    7 1
  13    7    8 2
  14    7    9 1
  15    9   15 ar
  16    9   19 ar
  17   10   11 1
  18   11   12 1
  19   11   32 1
  20   11   33 1
  21   12   13 am
  22   12   14 2
  23   13   21 1
  24   13   34 1
  25   15   16 ar
  26   15   35 1
  27   16   17 ar
  28   16   36 1
  29   17   18 ar
  30   17   37 1
  31   18   19 ar
  32   18   38 1
  33   19   20 1
  34   21   22 ar
  35   21   26 ar
  36   22   23 ar
  37   22   39 1
  38   23   24 ar
  39   23   40 1
  40   24   25 ar
  41   24   27 1
  42   25   26 ar

#	End of record

