#	Name: ASD04840064
#	Creating user name:	WinNT
#	Creation time:	15. 06. 2019 20:52

#	Modifying user name:	WinNT
#	Modification time:	15. 06. 2019 20:52

#	Program:	/corina/corina34_cracker 3.40 0067  02.08.2006

@<TRIPOS>MOLECULE
ASD04840064
  48   50    0    0    0
SMALL
NO_CHARGES


@<TRIPOS>ATOM
   1 C1            -0.2907     0.9880     1.5536 C.ar    
   2 C2            -0.3106    -0.3968     1.6434 C.ar    
   3 C3            -1.4677    -1.1009     1.3905 C.ar    
   4 C4            -2.6289    -0.4192     1.0421 C.ar    
   5 C5            -2.6036     0.9848     0.9529 C.ar    
   6 C6            -1.4214     1.6782     1.2179 C.ar    
   7 N7            -3.9096    -0.8225     0.7371 N.pl3   
   8 C8            -4.6875     0.2688     0.4607 C.2     
   9 C9            -3.9590     1.3906     0.5733 C.2     
  10 H10            0.6246     1.5247     1.7550 H       
  11 C11           -4.4436     2.8002     0.3513 C.3     
  12 C12           -4.2293     3.1885    -1.1130 C.3     
  13 H13           -4.2149    -1.7430     0.7203 H       
  14 C14           -6.6171    -1.2473    -0.0100 C.3     
  15 C15           -8.0600    -1.2198     0.5526 C.3     
  16 C16           -7.9541    -0.2019     1.7152 C.3     
  17 C17           -6.9961     0.8833     1.1819 C.3     
  18 P18           -5.0005     4.8095    -1.4309 P.3     
  19 O19           -4.3832     5.8299    -0.5545 O.2     
  20 O20           -4.7750     5.2181    -2.9717 O.3     
  21 O21           -6.5786     4.7224    -1.1242 O.3     
  22 P22           -2.4424     3.2871    -1.4602 P.3     
  23 O23           -1.8611     1.9261    -1.4455 O.2     
  24 O24           -2.2130     3.9530    -2.9080 O.3     
  25 O25           -1.7260     4.1889    -0.3352 O.3     
  26 C26           -6.1461     0.2186     0.0849 C.3     
  27 C27           -6.3670     0.9278    -1.2527 C.3     
  28 H28            0.5900    -0.9280     1.9138 H       
  29 H29           -1.4730    -2.1785     1.4623 H       
  30 H30           -1.3985     2.7559     1.1504 H       
  31 H31           -5.5050     2.8617     0.5919 H       
  32 H32           -3.8855     3.4816     0.9934 H       
  33 H33           -4.6840     2.4370    -1.7584 H       
  34 H34           -5.9827    -1.8921     0.5982 H       
  35 H35           -6.6186    -1.5811    -1.0477 H       
  36 H36           -8.7629    -0.8707    -0.2037 H       
  37 H37           -8.3482    -2.2029     0.9250 H       
  38 H38           -8.9313     0.2273     1.9366 H       
  39 H39           -7.5356    -0.6778     2.6020 H       
  40 H40           -7.5669     1.7113     0.7615 H       
  41 H41           -6.3537     1.2422     1.9860 H       
  42 H42           -5.1600     6.0718    -3.2126 H       
  43 H43           -7.0488     4.0720    -1.6636 H       
  44 H44           -2.5695     4.8481    -2.9902 H       
  45 H45           -0.7865     4.3488    -0.4988 H       
  46 H46           -5.6595     0.5448    -1.9882 H       
  47 H47           -7.3846     0.7443    -1.5975 H       
  48 H48           -6.2142     1.9995    -1.1253 H       
@<TRIPOS>BOND
   1    1    2 ar
   2    1   10 1
   3    1    6 ar
   4    2    3 ar
   5    2   28 1
   6    3    4 ar
   7    3   29 1
   8    4    5 ar
   9    4    7 1
  10    5    6 ar
  11    5    9 1
  12    6   30 1
  13    7    8 1
  14    7   13 1
  15    8    9 2
  16    8   26 1
  17    9   11 1
  18   11   12 1
  19   11   31 1
  20   11   32 1
  21   12   18 1
  22   12   22 1
  23   12   33 1
  24   14   15 1
  25   14   26 1
  26   14   34 1
  27   14   35 1
  28   15   16 1
  29   15   36 1
  30   15   37 1
  31   16   17 1
  32   16   38 1
  33   16   39 1
  34   17   26 1
  35   17   40 1
  36   17   41 1
  37   18   19 2
  38   18   20 1
  39   18   21 1
  40   20   42 1
  41   21   43 1
  42   22   23 2
  43   22   24 1
  44   22   25 1
  45   24   44 1
  46   25   45 1
  47   26   27 1
  48   27   46 1
  49   27   47 1
  50   27   48 1

#	End of record

