#	Name: ASD01882175
#	Creating user name:	WinNT
#	Creation time:	15. 06. 2019 19:44

#	Modifying user name:	WinNT
#	Modification time:	15. 06. 2019 19:44

#	Program:	/corina/corina34_cracker 3.40 0067  02.08.2006

@<TRIPOS>MOLECULE
ASD01882175
  51   55    0    0    0
SMALL
NO_CHARGES


@<TRIPOS>ATOM
   1 C1            -0.5951     0.4926    -1.3016 C.2     
   2 C2            -0.3295    -0.4761    -0.3248 C.2     
   3 C3            -1.1932    -0.5868     0.7804 C.2     
   4 C4            -2.2633     0.2209     0.9081 C.2     
   5 N5            -2.5594     1.1765    -0.0178 N.pl3   
   6 C6            -1.7654     1.3541    -1.1211 C.2     
   7 C7            -3.5774     2.1053    -0.1069 C.2     
   8 C8            -3.3707     2.8069    -1.2575 C.2     
   9 N9            -2.2725     2.3351    -1.8488 N.2     
  10 N10            0.7650    -1.3113    -0.4453 N.pl3   
  11 C11           -4.6784     2.3007     0.8582 C.ar    
  12 C12            0.5868    -2.7622    -0.5932 C.3     
  13 C13            1.4156    -3.4728     0.4815 C.3     
  14 C14            2.8701    -3.0056     0.3901 C.3     
  15 C15            2.9404    -1.4980     0.6442 C.3     
  16 C16            2.1287    -0.7645    -0.4342 C.3     
  17 C17            3.6953    -3.7279     1.4237 C.ar    
  18 C18            3.3840    -3.6062     2.7651 C.ar    
  19 C19            4.1410    -4.2688     3.7132 C.ar    
  20 C20           -5.3528     3.5222     0.9151 C.ar    
  21 C21            4.7601    -4.5167     1.0301 C.ar    
  22 C22            5.5171    -5.1793     1.9782 C.ar    
  23 C23            5.2089    -5.0534     3.3199 C.ar    
  24 C24           -5.0534     1.2628     1.7140 C.ar    
  25 C25           -6.0825     1.4522     2.6128 C.ar    
  26 C26           -6.7427     2.6670     2.6677 C.ar    
  27 C27           -6.3800     3.6978     1.8187 C.ar    
  28 C28            0.2580     0.6401    -2.4423 C.1     
  29 N29            0.9347     0.7571    -3.3472 N.1     
  30 H30           -0.9952    -1.3310     1.5376 H       
  31 H31           -2.9057     0.1080     1.7689 H       
  32 H32           -3.9901     3.6111    -1.6262 H       
  33 H33           -0.4661    -3.0155    -0.4695 H       
  34 H34            0.9260    -3.0732    -1.5813 H       
  35 H35            1.0172    -3.2314     1.4670 H       
  36 H36            1.3690    -4.5502     0.3236 H       
  37 H37            3.2602    -3.2249    -0.6037 H       
  38 H38            2.5276    -1.2753     1.6281 H       
  39 H39            3.9790    -1.1700     0.6021 H       
  40 H40            2.5958    -0.9135    -1.4077 H       
  41 H41            2.0923     0.3001    -0.2032 H       
  42 H42            2.5497    -2.9931     3.0723 H       
  43 H43            3.8982    -4.1731     4.7612 H       
  44 H44           -5.0706     4.3276     0.2532 H       
  45 H45            5.0004    -4.6156    -0.0181 H       
  46 H46            6.3487    -5.7958     1.6707 H       
  47 H47            5.8003    -5.5711     4.0607 H       
  48 H48           -4.5392     0.3140     1.6720 H       
  49 H49           -6.3738     0.6503     3.2750 H       
  50 H50           -7.5479     2.8098     3.3731 H       
  51 H51           -6.8995     4.6434     1.8669 H       
@<TRIPOS>BOND
   1    1    2 2
   2    1   28 1
   3    1    6 1
   4    2    3 1
   5    2   10 1
   6    3    4 2
   7    3   30 1
   8    4    5 1
   9    4   31 1
  10    5    6 1
  11    5    7 1
  12    6    9 2
  13    7    8 2
  14    7   11 1
  15    8    9 1
  16    8   32 1
  17   10   12 1
  18   10   16 1
  19   11   20 ar
  20   11   24 ar
  21   12   13 1
  22   12   33 1
  23   12   34 1
  24   13   14 1
  25   13   35 1
  26   13   36 1
  27   14   15 1
  28   14   17 1
  29   14   37 1
  30   15   16 1
  31   15   38 1
  32   15   39 1
  33   16   40 1
  34   16   41 1
  35   17   21 ar
  36   17   18 ar
  37   18   19 ar
  38   18   42 1
  39   19   23 ar
  40   19   43 1
  41   20   27 ar
  42   20   44 1
  43   21   22 ar
  44   21   45 1
  45   22   23 ar
  46   22   46 1
  47   23   47 1
  48   24   25 ar
  49   24   48 1
  50   25   26 ar
  51   25   49 1
  52   26   27 ar
  53   26   50 1
  54   27   51 1
  55   28   29 3

#	End of record

