#	Name: ASD02610012
#	Creating user name:	WinNT
#	Creation time:	15. 06. 2019 20:25

#	Modifying user name:	WinNT
#	Modification time:	15. 06. 2019 20:25

#	Program:	/corina/corina34_cracker 3.40 0067  02.08.2006

@<TRIPOS>MOLECULE
ASD02610012
  77   80    0    0    0
SMALL
NO_CHARGES


@<TRIPOS>ATOM
   1 C1             0.3824     0.8807     0.3884 C.3     
   2 C2             0.5634    -0.6101     0.0241 C.3     
   3 C3             1.9770    -0.9370     0.4375 C.2     
   4 C4             2.6812     0.1577     0.6212 C.2     
   5 C5             1.8493     1.3783     0.3500 C.3     
   6 C6             4.1196     0.1559     1.0733 C.3     
   7 C7             4.8965     1.2575     0.3513 C.3     
   8 C8             4.6219     1.5797    -1.0326 C.3     
   9 C9             3.4692     2.5881    -1.1647 C.3     
  10 C10            2.1220     1.9466    -1.0363 C.3     
  11 O11            0.3964    -0.8055    -1.4050 O.3     
  12 C12           -0.0875    -1.9976    -1.8073 C.2     
  13 O13           -0.3623    -2.8503    -0.9861 O.2     
  14 C14           -0.2828    -2.2661    -3.2388 C.2     
  15 C15            0.0579    -1.2087    -4.2571 C.3     
  16 C16           -0.7606    -3.4430    -3.6360 C.2     
  17 C17           -1.1013    -4.5003    -2.6177 C.3     
  18 C18            2.5114    -2.3347     0.6164 C.3     
  19 O19           -0.1760     1.0263     1.6957 O.3     
  20 H20            2.0162     2.1309     1.1206 H       
  21 O21            1.1208     2.9211    -1.3364 O.3     
  22 C22            2.0194     0.8135    -2.0592 C.3     
  23 O23            4.2692     0.3623    -1.7411 O.3     
  24 C24            4.8112     0.1857    -2.9563 C.2     
  25 C25            4.4912    -1.0540    -3.7512 C.3     
  26 O26            5.5555     1.0207    -3.4130 O.2     
  27 O27            4.2604     0.5408     2.4533 O.3     
  28 C28            5.5864     1.0863     2.6207 C.3     
  29 C29            6.0427     1.6394     1.2318 C.3     
  30 H30            4.5751    -0.8167     0.8875 H       
  31 O31            4.0283     2.2573     0.8884 O.3     
  32 C32            5.2322    -1.0076    -5.0889 C.3     
  33 C33            4.9073    -2.2662    -5.8959 C.3     
  34 H34            5.6074     1.8597     3.3885 H       
  35 C35            6.2993     3.1476     1.2456 C.3     
  36 O36            6.5045     0.0134     2.9022 O.3     
  37 C37            7.6981     0.3581     2.1686 C.3     
  38 O38            7.2178     0.8670     0.9077 O.3     
  39 C39            8.4886     1.4363     2.9126 C.3     
  40 C40            8.5650    -0.8831     1.9473 C.3     
  41 H41           -0.2259     1.3951    -0.3555 H       
  42 H42           -0.1460    -1.2252     0.5777 H       
  43 H43            5.5189     2.0043    -1.4834 H       
  44 H44            3.5737     3.3456    -0.3880 H       
  45 H45            3.5364     3.0737    -2.1382 H       
  46 H46            1.0976    -1.3217    -4.5642 H       
  47 H47           -0.5915    -1.3181    -5.1257 H       
  48 H48           -0.0860    -0.2215    -3.8179 H       
  49 H49           -0.9041    -3.6403    -4.6880 H       
  50 H50           -1.4753    -5.3884    -3.1272 H       
  51 H51           -0.2083    -4.7574    -2.0480 H       
  52 H52           -1.8668    -4.1201    -1.9413 H       
  53 H53            1.7227    -3.0556     0.4012 H       
  54 H54            3.3460    -2.4947    -0.0663 H       
  55 H55            2.8521    -2.4647     1.6435 H       
  56 H56           -1.0543     0.6340     1.7942 H       
  57 H57            1.2214     3.3337    -2.2051 H       
  58 H58            0.9762     0.6732    -2.3426 H       
  59 H59            2.6049     1.0675    -2.9428 H       
  60 H60            2.4039    -0.1075    -1.6210 H       
  61 H61            4.8056    -1.9353    -3.1920 H       
  62 H62            3.4174    -1.1025    -3.9321 H       
  63 H63            4.0978     2.3649     1.8469 H       
  64 H64            4.9178    -0.1263    -5.6480 H       
  65 H65            6.3060    -0.9591    -4.9080 H       
  66 H66            5.2218    -3.1475    -5.3368 H       
  67 H67            3.8335    -2.3147    -6.0768 H       
  68 H68            5.4352    -2.2331    -6.8489 H       
  69 H69            5.4114     3.6640     1.6105 H       
  70 H70            7.1422     3.3668     1.9011 H       
  71 H71            6.5272     3.4867     0.2350 H       
  72 H72            8.7941     1.0555     3.8871 H       
  73 H73            9.3725     1.7035     2.3334 H       
  74 H74            7.8622     2.3182     3.0472 H       
  75 H75            7.9924    -1.6337     1.4025 H       
  76 H76            9.4487    -0.6108     1.3703 H       
  77 H77            8.8714    -1.2889     2.9114 H       
@<TRIPOS>BOND
   1    1    2 1
   2    1    5 1
   3    1   19 1
   4    1   41 1
   5    2    3 1
   6    2   11 1
   7    2   42 1
   8    3    4 2
   9    3   18 1
  10    4    5 1
  11    4    6 1
  12    5   10 1
  13    5   20 1
  14    6    7 1
  15    6   27 1
  16    6   30 1
  17    7   29 1
  18    7   31 1
  19    7    8 1
  20    8    9 1
  21    8   23 1
  22    8   43 1
  23    9   10 1
  24    9   44 1
  25    9   45 1
  26   10   21 1
  27   10   22 1
  28   11   12 1
  29   12   13 2
  30   12   14 1
  31   14   15 1
  32   14   16 2
  33   15   46 1
  34   15   47 1
  35   15   48 1
  36   16   17 1
  37   16   49 1
  38   17   50 1
  39   17   51 1
  40   17   52 1
  41   18   53 1
  42   18   54 1
  43   18   55 1
  44   19   56 1
  45   21   57 1
  46   22   58 1
  47   22   59 1
  48   22   60 1
  49   23   24 1
  50   24   25 1
  51   24   26 2
  52   25   32 1
  53   25   61 1
  54   25   62 1
  55   27   28 1
  56   28   29 1
  57   28   34 1
  58   28   36 1
  59   29   35 1
  60   29   38 1
  61   31   63 1
  62   32   33 1
  63   32   64 1
  64   32   65 1
  65   33   66 1
  66   33   67 1
  67   33   68 1
  68   35   69 1
  69   35   70 1
  70   35   71 1
  71   36   37 1
  72   37   38 1
  73   37   39 1
  74   37   40 1
  75   39   72 1
  76   39   73 1
  77   39   74 1
  78   40   75 1
  79   40   76 1
  80   40   77 1

#	End of record

