#	Name: ASD03240618
#	Creating user name:	WinNT
#	Creation time:	15. 06. 2019 20:35

#	Modifying user name:	WinNT
#	Modification time:	15. 06. 2019 20:35

#	Program:	/corina/corina34_cracker 3.40 0067  02.08.2006

@<TRIPOS>MOLECULE
ASD03240618
  64   71    0    0    0
SMALL
NO_CHARGES


@<TRIPOS>ATOM
   1 C1            -0.0166     1.3755     0.0096 C.ar    
   2 C2             0.0021    -0.0041     0.0020 C.ar    
   3 N3             1.1422    -0.6683    -0.0054 N.ar    
   4 C4             2.3145    -0.0481    -0.0053 C.ar    
   5 C5             2.3702     1.3442    -0.0124 C.ar    
   6 C6             1.1860     2.0698     0.0019 C.ar    
   7 N7             3.4819    -0.8058     0.0228 N.pl3   
   8 C8             4.3587    -0.7194     1.1007 C.ar    
   9 C9             4.9948     0.4889     1.4047 C.ar    
  10 C10            4.7639     1.6833     0.5627 C.2     
  11 N11            3.5938     2.0277    -0.0512 N.pl3   
  12 C12            4.6042    -1.8391     1.8843 C.ar    
  13 C13            5.4636    -1.7537     2.9629 C.ar    
  14 C14            6.0843    -0.5556     3.2719 C.ar    
  15 C15            5.8553     0.5652     2.4995 C.ar    
  16 N16            5.6756     2.5932     0.2863 N.2     
  17 C17            5.1454     3.5393    -0.5055 C.2     
  18 C18            3.8215     3.2021    -0.7366 C.2     
  19 C19            2.8482     3.9516    -1.5540 C.ar    
  20 C20            2.7483     5.3396    -1.4294 C.ar    
  21 C21            2.0261     3.2773    -2.4603 C.ar    
  22 C22            1.1189     3.9845    -3.2214 C.ar    
  23 C23            1.0218     5.3585    -3.0889 C.ar    
  24 C24            1.8365     6.0336    -2.1970 C.ar    
  25 C25            5.8482     4.7277    -1.0354 C.ar    
  26 C26            0.0280     6.1241    -3.9240 C.3     
  27 C27            6.8199     5.3693    -0.2611 C.ar    
  28 C28            7.4647     6.4633    -0.7529 C.ar    
  29 C29            7.1614     6.9513    -2.0298 C.ar    
  30 C30            6.1892     6.3076    -2.8031 C.ar    
  31 C31            5.5460     5.2073    -2.3128 C.ar    
  32 N32           -1.0305     5.2690    -4.4775 N.3     
  33 C33           -0.5017     7.3954    -3.2399 C.3     
  34 C34           -0.4067     8.0796    -4.6138 C.3     
  35 C35            0.6810     7.0503    -4.9636 C.3     
  36 C36            8.5357     7.3685    -0.1974 C.3     
  37 O37            8.8015     8.3655    -1.2216 O.3     
  38 C38            8.0098     8.1276    -2.2809 C.2     
  39 O39            7.9964     8.7887    -3.3004 O.2     
  40 H40           -0.9556     1.9091     0.0170 H       
  41 H41           -0.9306    -0.5486     0.0025 H       
  42 H42            1.2002     3.1497     0.0061 H       
  43 H43            3.6863    -1.4003    -0.7159 H       
  44 H44            4.1229    -2.7773     1.6508 H       
  45 H45            5.6520    -2.6275     3.5691 H       
  46 H46            6.7503    -0.4977     4.1201 H       
  47 H47            6.3407     1.4989     2.7428 H       
  48 H48            3.3833     5.8677    -0.7335 H       
  49 H49            2.1010     2.2050    -2.5650 H       
  50 H50            0.4830     3.4646    -3.9227 H       
  51 H51            1.7551     7.1061    -2.0985 H       
  52 H52            7.0583     4.9982     0.7248 H       
  53 H53            5.9502     6.6785    -3.7888 H       
  54 H54            4.7956     4.7113    -2.9106 H       
  55 H55           -0.6390     4.4609    -4.9377 H       
  56 H56           -1.6857     4.9950    -3.7608 H       
  57 H57           -1.5224     7.2991    -2.8697 H       
  58 H58            0.1814     7.8090    -2.4980 H       
  59 H59           -1.3109     7.9805    -5.2144 H       
  60 H60           -0.0389     9.1046    -4.5667 H       
  61 H61            1.6874     7.3695    -4.6929 H       
  62 H62            0.6151     6.6753    -5.9849 H       
  63 H63            8.1815     7.8524     0.7128 H       
  64 H64            9.4393     6.7954     0.0103 H       
@<TRIPOS>BOND
   1    1    2 ar
   2    1    6 ar
   3    1   40 1
   4    2    3 ar
   5    2   41 1
   6    3    4 ar
   7    4    5 ar
   8    4    7 1
   9    5    6 ar
  10    5   11 1
  11    6   42 1
  12    7    8 1
  13    7   43 1
  14    8    9 ar
  15    8   12 ar
  16    9   10 1
  17    9   15 ar
  18   10   11 1
  19   10   16 2
  20   11   18 1
  21   12   13 ar
  22   12   44 1
  23   13   14 ar
  24   13   45 1
  25   14   15 ar
  26   14   46 1
  27   15   47 1
  28   16   17 1
  29   17   18 2
  30   17   25 1
  31   18   19 1
  32   19   20 ar
  33   19   21 ar
  34   20   24 ar
  35   20   48 1
  36   21   22 ar
  37   21   49 1
  38   22   23 ar
  39   22   50 1
  40   23   24 ar
  41   23   26 1
  42   24   51 1
  43   25   27 ar
  44   25   31 ar
  45   26   33 1
  46   26   32 1
  47   26   35 1
  48   27   28 ar
  49   27   52 1
  50   28   29 ar
  51   28   36 1
  52   29   30 ar
  53   29   38 1
  54   30   31 ar
  55   30   53 1
  56   31   54 1
  57   32   55 1
  58   32   56 1
  59   33   34 1
  60   33   57 1
  61   33   58 1
  62   34   35 1
  63   34   59 1
  64   34   60 1
  65   35   61 1
  66   35   62 1
  67   36   37 1
  68   36   63 1
  69   36   64 1
  70   37   38 1
  71   38   39 2

#	End of record

