#	Name: ASD01883650
#	Creating user name:	WinNT
#	Creation time:	15. 06. 2019 19:46

#	Modifying user name:	WinNT
#	Modification time:	15. 06. 2019 19:46

#	Program:	/corina/corina34_cracker 3.40 0067  02.08.2006

@<TRIPOS>MOLECULE
ASD01883650
  55   58    0    0    0
SMALL
NO_CHARGES


@<TRIPOS>ATOM
   1 C1            -0.0168     1.3851     0.0097 C.2     
   2 C2             0.0021    -0.0041     0.0020 C.2     
   3 C3            -1.2077    -0.7046     0.0098 C.2     
   4 C4            -2.3913    -0.0542     0.0245 C.2     
   5 N5            -2.4610     1.3064     0.0320 N.pl3   
   6 C6            -1.3167     2.0619     0.0319 C.2     
   7 C7            -3.5146     2.1815     0.0463 C.2     
   8 C8            -2.9968     3.4281     0.0477 C.2     
   9 N9            -1.6629     3.3358     0.0399 N.2     
  10 C10           -4.9776     1.8203     0.0573 C.3     
  11 C11           -5.5157     1.8280    -1.3749 C.3     
  12 F12           -4.8108     0.8950    -2.1429 F       
  13 F13           -6.8739     1.4927    -1.3646 F       
  14 F14           -5.3544     3.1034    -1.9268 F       
  15 C15            1.3126    -0.7478    -0.0149 C.3     
  16 N16            1.6926    -1.1019     1.3592 N.3     
  17 C17            2.8333    -2.0266     1.3681 C.3     
  18 C18            3.1079    -2.4862     2.8018 C.3     
  19 C19            3.4098    -1.2652     3.6751 C.3     
  20 C20            2.2264    -0.2957     3.6099 C.3     
  21 C21            1.9774     0.1004     2.1528 C.3     
  22 C22            3.6221    -1.7056     5.1005 C.ar    
  23 C23            4.4689    -0.9906     5.9249 C.ar    
  24 C24            4.6636    -1.3964     7.2374 C.ar    
  25 C25            4.0069    -2.5196     7.7182 C.ar    
  26 C26            3.1608    -3.2314     6.8897 C.ar    
  27 C27            2.9645    -2.8220     5.5839 C.ar    
  28 O28            4.5876    -0.6140     3.1947 O.3     
  29 O29            5.4966    -0.6948     8.0502 O.3     
  30 C30            5.6490    -1.1705     9.3891 C.3     
  31 C31            1.2024     2.1362     0.0021 C.1     
  32 N32            2.1695     2.7321    -0.0040 N.1     
  33 H33           -1.1956    -1.7845     0.0035 H       
  34 H34           -3.3065    -0.6276     0.0302 H       
  35 H35           -3.5650     4.3465     0.0576 H       
  36 H36           -5.1033     0.8266     0.4873 H       
  37 H37           -5.5268     2.5472     0.6557 H       
  38 H38            1.2073    -1.6561    -0.6083 H       
  39 H39            2.0840    -0.1148    -0.4535 H       
  40 H40            2.6039    -2.8923     0.7469 H       
  41 H41            3.7144    -1.5201     0.9741 H       
  42 H42            2.2320    -3.0048     3.1917 H       
  43 H43            3.9644    -3.1603     2.8101 H       
  44 H44            1.3367    -0.7799     4.0125 H       
  45 H45            2.4531     0.5952     4.1956 H       
  46 H46            2.8625     0.5969     1.7551 H       
  47 H47            1.1263     0.7795     2.1014 H       
  48 H48            4.9793    -0.1166     5.5480 H       
  49 H49            4.1570    -2.8377     8.7394 H       
  50 H50            2.6493    -4.1060     7.2636 H       
  51 H51            2.3028    -3.3798     4.9378 H       
  52 H52            4.8384     0.1699     3.7023 H       
  53 H53            4.6803    -1.1664     9.8887 H       
  54 H54            6.0442    -2.1861     9.3711 H       
  55 H55            6.3389    -0.5217     9.9288 H       
@<TRIPOS>BOND
   1    1    2 2
   2    1   31 1
   3    1    6 1
   4    2    3 1
   5    2   15 1
   6    3    4 2
   7    3   33 1
   8    4    5 1
   9    4   34 1
  10    5    6 1
  11    5    7 1
  12    6    9 2
  13    7    8 2
  14    7   10 1
  15    8    9 1
  16    8   35 1
  17   10   11 1
  18   10   36 1
  19   10   37 1
  20   11   12 1
  21   11   13 1
  22   11   14 1
  23   15   16 1
  24   15   38 1
  25   15   39 1
  26   16   17 1
  27   16   21 1
  28   17   18 1
  29   17   40 1
  30   17   41 1
  31   18   19 1
  32   18   42 1
  33   18   43 1
  34   19   20 1
  35   19   22 1
  36   19   28 1
  37   20   21 1
  38   20   44 1
  39   20   45 1
  40   21   46 1
  41   21   47 1
  42   22   23 ar
  43   22   27 ar
  44   23   24 ar
  45   23   48 1
  46   24   25 ar
  47   24   29 1
  48   25   26 ar
  49   25   49 1
  50   26   27 ar
  51   26   50 1
  52   27   51 1
  53   28   52 1
  54   29   30 1
  55   30   53 1
  56   30   54 1
  57   30   55 1
  58   31   32 3

#	End of record

