#	Name: ASD01882759
#	Creating user name:	WinNT
#	Creation time:	15. 06. 2019 19:45

#	Modifying user name:	WinNT
#	Modification time:	15. 06. 2019 19:45

#	Program:	/corina/corina34_cracker 3.40 0067  02.08.2006

@<TRIPOS>MOLECULE
ASD01882759
  45   47    0    0    0
SMALL
NO_CHARGES


@<TRIPOS>ATOM
   1 N1            -1.2018     0.5931    -1.5612 N.pl3   
   2 O2             0.2740    -1.2474    -1.1640 O.3     
   3 C3            -0.9652    -0.7293    -1.2757 C.2     
   4 N4            -1.9141    -1.5942    -1.0884 N.2     
   5 C5            -1.3000    -2.9039    -0.7953 C.3     
   6 C6             0.1619    -2.5087    -0.4732 C.3     
   7 C7             1.1458    -3.5345    -1.0392 C.3     
   8 O8             2.4832    -3.1190    -0.7551 O.3     
   9 C9             3.4859    -3.9252    -1.1926 C.ar    
  10 C10            4.8084    -3.5825    -0.9513 C.ar    
  11 C11            5.8259    -4.4037    -1.3972 C.ar    
  12 C12            5.5271    -5.5662    -2.0834 C.ar    
  13 C13            4.2099    -5.9097    -2.3256 C.ar    
  14 C14            3.1886    -5.0951    -1.8764 C.ar    
  15 C15            6.6391    -6.4602    -2.5687 C.3     
  16 C16            6.0478    -7.6152    -3.3795 C.3     
  17 C17            7.5792    -5.6657    -3.4381 C.ar    
  18 C18            8.9283    -5.6242    -3.1394 C.ar    
  19 C19            9.7907    -4.8954    -3.9369 C.ar    
  20 C20            9.3041    -4.2084    -5.0333 C.ar    
  21 C21            7.9552    -4.2506    -5.3325 C.ar    
  22 C22            7.0934    -4.9830    -4.5376 C.ar    
  23 C23            7.4047    -7.0195    -1.3679 C.3     
  24 H24           -0.4579     1.2015    -1.6927 H       
  25 H25           -2.1129     0.9177    -1.6353 H       
  26 H26           -1.7754    -3.3728     0.0663 H       
  27 H27           -1.3436    -3.5580    -1.6661 H       
  28 H28            0.3056    -2.3815     0.5997 H       
  29 H29            0.9620    -4.5060    -0.5804 H       
  30 H30            1.0106    -3.6109    -2.1181 H       
  31 H31            5.0424    -2.6743    -0.4157 H       
  32 H32            6.8556    -4.1372    -1.2099 H       
  33 H33            3.9791    -6.8180    -2.8624 H       
  34 H34            2.1598    -5.3663    -2.0615 H       
  35 H35            5.5024    -7.2167    -4.2350 H       
  36 H36            6.8521    -8.2618    -3.7305 H       
  37 H37            5.3678    -8.1898    -2.7507 H       
  38 H38            9.3084    -6.1610    -2.2828 H       
  39 H39           10.8446    -4.8624    -3.7031 H       
  40 H40            9.9778    -3.6384    -5.6559 H       
  41 H41            7.5750    -3.7136    -6.1889 H       
  42 H42            6.0401    -5.0189    -4.7735 H       
  43 H43            6.7246    -7.5942    -0.7391 H       
  44 H44            8.2089    -7.6661    -1.7189 H       
  45 H45            7.8259    -6.1967    -0.7903 H       
@<TRIPOS>BOND
   1    1    3 1
   2    1   24 1
   3    1   25 1
   4    2    3 1
   5    2    6 1
   6    3    4 2
   7    4    5 1
   8    5    6 1
   9    5   26 1
  10    5   27 1
  11    6    7 1
  12    6   28 1
  13    7    8 1
  14    7   29 1
  15    7   30 1
  16    8    9 1
  17    9   10 ar
  18    9   14 ar
  19   10   11 ar
  20   10   31 1
  21   11   12 ar
  22   11   32 1
  23   12   13 ar
  24   12   15 1
  25   13   14 ar
  26   13   33 1
  27   14   34 1
  28   15   16 1
  29   15   17 1
  30   15   23 1
  31   16   35 1
  32   16   36 1
  33   16   37 1
  34   17   18 ar
  35   17   22 ar
  36   18   19 ar
  37   18   38 1
  38   19   20 ar
  39   19   39 1
  40   20   21 ar
  41   20   40 1
  42   21   22 ar
  43   21   41 1
  44   22   42 1
  45   23   43 1
  46   23   44 1
  47   23   45 1

#	End of record

