#	Name: ASD06710005
#	Creating user name:	WinNT
#	Creation time:	15. 06. 2019 21:08

#	Modifying user name:	WinNT
#	Modification time:	15. 06. 2019 21:08

#	Program:	/corina/corina34_cracker 3.40 0067  02.08.2006

@<TRIPOS>MOLECULE
ASD06710005
  36   37    0    0    0
SMALL
NO_CHARGES


@<TRIPOS>ATOM
   1 C1             1.3119     2.6577    -2.8604 C.ar    
   2 C2             0.4076     1.6291    -2.6692 C.ar    
   3 C3             0.5551     0.7639    -1.6005 C.ar    
   4 C4             1.6072     0.9246    -0.7196 C.ar    
   5 C5             2.5181     1.9568    -0.9087 C.ar    
   6 C6             2.3668     2.8242    -1.9838 C.ar    
   7 N7             3.5836     2.1224    -0.0198 N.pl3   
   8 C8             4.7926     1.4544    -0.2444 C.ar    
   9 C9             4.9561     0.6782    -1.3842 C.ar    
  10 C10            6.1497     0.0191    -1.6053 C.ar    
  11 C11            7.1849     0.1322    -0.6896 C.ar    
  12 C12            7.0227     0.9077     0.4499 C.ar    
  13 C13            5.8318     1.5721     0.6697 C.ar    
  14 C14           -0.7416     1.4508    -3.6276 C.3     
  15 C15           -0.3160     0.5229    -4.7672 C.3     
  16 C16           -1.4995     0.2463    -5.6583 C.2     
  17 O17           -2.4115    -0.6701    -5.2976 O.3     
  18 O18           -1.6273     0.8494    -6.6975 O.2     
  19 N19            0.7473     1.1656    -5.5509 N.3     
  20 I20            3.7368     4.3821    -2.2753 I       
  21 I21            1.8286    -0.3860     0.8998 I       
  22 I22            8.5872     1.0772     1.8328 I       
  23 O23            8.3595    -0.5175    -0.9080 O.3     
  24 H24            1.1960     3.3290    -3.6984 H       
  25 H25           -0.1533    -0.0381    -1.4541 H       
  26 H26            3.4851     2.7003     0.7530 H       
  27 H27            4.1500     0.5895    -2.0974 H       
  28 H28            6.2767    -0.5849    -2.4916 H       
  29 H29            5.7056     2.1755     1.5564 H       
  30 H30           -1.5897     1.0137    -3.1006 H       
  31 H31           -1.0279     2.4200    -4.0359 H       
  32 H32            0.0541    -0.4150    -4.3532 H       
  33 H33           -3.1531    -0.8128    -5.9016 H       
  34 H34            1.0906     0.5471    -6.2703 H       
  35 H35            0.4287     2.0379    -5.9456 H       
  36 H36            9.0076    -0.0014    -1.4067 H       
@<TRIPOS>BOND
   1    1    2 ar
   2    1    6 ar
   3    1   24 1
   4    2    3 ar
   5    2   14 1
   6    3    4 ar
   7    3   25 1
   8    4    5 ar
   9    4   21 1
  10    5    6 ar
  11    5    7 1
  12    6   20 1
  13    7    8 1
  14    7   26 1
  15    8    9 ar
  16    8   13 ar
  17    9   10 ar
  18    9   27 1
  19   10   11 ar
  20   10   28 1
  21   11   12 ar
  22   11   23 1
  23   12   13 ar
  24   12   22 1
  25   13   29 1
  26   14   15 1
  27   14   30 1
  28   14   31 1
  29   15   16 1
  30   15   19 1
  31   15   32 1
  32   16   17 1
  33   16   18 2
  34   17   33 1
  35   19   34 1
  36   19   35 1
  37   23   36 1

#	End of record

