#	Name: ASD01814925
#	Creating user name:	WinNT
#	Creation time:	15. 06. 2019 19:33

#	Modifying user name:	WinNT
#	Modification time:	15. 06. 2019 19:33

#	Program:	/corina/corina34_cracker 3.40 0067  02.08.2006

@<TRIPOS>MOLECULE
ASD01814925
  53   57    0    0    0
SMALL
NO_CHARGES


@<TRIPOS>ATOM
   1 C1            -0.0169     1.3972     0.0097 C.2     
   2 C2             0.0021    -0.0041     0.0020 C.2     
   3 C3             1.1986    -0.6593    -0.0129 C.2     
   4 C4             2.3918     0.0821    -0.0204 C.2     
   5 N5             2.3437     1.4497    -0.0122 N.am    
   6 C6             1.1421     2.0937     0.0024 C.2     
   7 C7             3.6227    -0.5889    -0.0356 C.2     
   8 C8             4.7877     0.1218    -0.0425 C.2     
   9 C9             4.7345     1.5280    -0.0346 C.2     
  10 C10            3.4812     2.1736    -0.0189 C.2     
  11 O11            3.4258     3.3917    -0.0123 O.2     
  12 C12            5.9703     2.3140    -0.0413 C.2     
  13 O13            5.9124     3.6618    -0.0337 O.3     
  14 O14            7.0487     1.7516    -0.0537 O.2     
  15 C15            3.6593    -2.0954    -0.0439 C.3     
  16 N16            3.7787    -2.5747    -1.4274 N.3     
  17 C17            4.0550    -4.0176    -1.4629 C.3     
  18 C18            4.0930    -4.4914    -2.9177 C.3     
  19 N19            5.1256    -3.7424    -3.6473 N.3     
  20 C20            4.8494    -2.2994    -3.6118 C.3     
  21 C21            4.8113    -1.8256    -2.1570 C.3     
  22 H22            5.0173    -4.2153    -0.9907 H       
  23 H23            4.3265    -5.5557    -2.9475 H       
  24 H24            3.1221    -4.3186    -3.3819 H       
  25 C25            5.2387    -4.1965    -4.9581 C.ar    
  26 C26            6.1623    -3.6081    -5.7980 C.ar    
  27 C27            6.2644    -4.0782    -7.1175 C.ar    
  28 C28            5.4104    -5.1379    -7.5230 C.ar    
  29 C29            4.5039    -5.6691    -6.5925 C.ar    
  30 N30            4.4575    -5.1919    -5.3710 N.ar    
  31 C31            7.1766    -3.5346    -8.0351 C.ar    
  32 C32            7.2298    -4.0316    -9.3018 C.ar    
  33 C33            6.3917    -5.0717    -9.7011 C.ar    
  34 C34            5.4951    -5.6235    -8.8380 C.ar    
  35 H35           -0.9605     1.9226     0.0170 H       
  36 H36           -0.9233    -0.5609     0.0082 H       
  37 H37            1.2282    -1.7389    -0.0187 H       
  38 H38            1.1156     3.1733     0.0087 H       
  39 H39            5.7393    -0.3889    -0.0536 H       
  40 H40            6.7544     4.1373    -0.0385 H       
  41 H41            4.5153    -2.4412     0.5356 H       
  42 H42            2.7412    -2.4836     0.3971 H       
  43 H43            3.2701    -4.5514    -0.9270 H       
  44 H44            5.6342    -1.7656    -4.1477 H       
  45 H45            3.8870    -2.1017    -4.0839 H       
  46 H46            4.5779    -0.7613    -2.1271 H       
  47 H47            5.7823    -1.9984    -1.6927 H       
  48 H48            6.7924    -2.8037    -5.4484 H       
  49 H49            3.8456    -6.4751    -6.8813 H       
  50 H50            7.8311    -2.7282    -7.7390 H       
  51 H51            7.9318    -3.6134   -10.0080 H       
  52 H52            6.4549    -5.4459   -10.7122 H       
  53 H53            4.8529    -6.4289    -9.1625 H       
@<TRIPOS>BOND
   1    1    2 1
   2    1    6 2
   3    1   35 1
   4    2    3 2
   5    2   36 1
   6    3    4 1
   7    3   37 1
   8    4    5 1
   9    4    7 2
  10    5    6 1
  11    5   10 am
  12    6   38 1
  13    7   15 1
  14    7    8 1
  15    8    9 2
  16    8   39 1
  17    9   10 1
  18    9   12 1
  19   10   11 2
  20   12   13 1
  21   12   14 2
  22   13   40 1
  23   15   16 1
  24   15   41 1
  25   15   42 1
  26   16   17 1
  27   16   21 1
  28   17   18 1
  29   17   22 1
  30   17   43 1
  31   18   19 1
  32   18   23 1
  33   18   24 1
  34   19   20 1
  35   19   25 1
  36   20   21 1
  37   20   44 1
  38   20   45 1
  39   21   46 1
  40   21   47 1
  41   25   26 ar
  42   25   30 ar
  43   26   27 ar
  44   26   48 1
  45   27   28 ar
  46   27   31 ar
  47   28   29 ar
  48   28   34 ar
  49   29   30 ar
  50   29   49 1
  51   31   32 ar
  52   31   50 1
  53   32   33 ar
  54   32   51 1
  55   33   34 ar
  56   33   52 1
  57   34   53 1

#	End of record

