#	Name: ASD01940419
#	Creating user name:	WinNT
#	Creation time:	15. 06. 2019 20:12

#	Modifying user name:	WinNT
#	Modification time:	15. 06. 2019 20:12

#	Program:	/corina/corina34_cracker 3.40 0067  02.08.2006

@<TRIPOS>MOLECULE
ASD01940419
  42   44    0    0    0
SMALL
NO_CHARGES


@<TRIPOS>ATOM
   1 S1             1.6632     2.4733     2.6905 S.3     
   2 N2             2.1067     0.9733     3.3456 N.2     
   3 C3             2.7532     0.3128     2.4469 C.2     
   4 C4             2.9597     0.9016     1.1884 C.ar    
   5 C5             2.3960     2.1880     1.1090 C.ar    
   6 C6             2.4886     2.9462    -0.0557 C.ar    
   7 C7             3.1559     2.4164    -1.1678 C.ar    
   8 C8             3.7190     1.1315    -1.0885 C.ar    
   9 C9             3.6276     0.3957     0.0443 C.ar    
  10 C10            3.2658     3.1992    -2.4093 C.2     
  11 O11            2.7607     4.3036    -2.4786 O.2     
  12 N12            3.9260     2.6924    -3.4693 N.am    
  13 O13            4.0318     3.4455    -4.6637 O.3     
  14 C14            4.7573     2.7869    -5.7038 C.3     
  15 C15            4.8081     3.6876    -6.9395 C.3     
  16 C16            5.6888     3.0377    -8.0086 C.3     
  17 O17            5.8310     3.9301    -9.1156 O.3     
  18 O18            3.4868     3.8651    -7.4542 O.3     
  19 N19            1.9253     4.2131    -0.1141 N.pl3   
  20 C20            0.6381     4.3829    -0.6343 C.ar    
  21 C21            0.0246     5.6307    -0.5838 C.ar    
  22 C22           -1.2475     5.7943    -1.0995 C.ar    
  23 C23           -1.9096     4.7186    -1.6647 C.ar    
  24 C24           -1.3017     3.4775    -1.7155 C.ar    
  25 C25           -0.0279     3.3083    -1.2074 C.ar    
  26 I26           -3.8376     4.9707    -2.4446 I       
  27 F27            0.6708     6.6806    -0.0312 F       
  28 H28            3.1302    -0.6769     2.6582 H       
  29 H29            4.2333     0.7236    -1.9461 H       
  30 H30            4.0700    -0.5890     0.0774 H       
  31 H31            4.3288     1.8117    -3.4140 H       
  32 H32            5.7718     2.5791    -5.3638 H       
  33 H33            4.2600     1.8505    -5.9570 H       
  34 H34            5.2246     4.6570    -6.6657 H       
  35 H35            6.6708     2.8212    -7.5879 H       
  36 H36            5.2258     2.1106    -8.3464 H       
  37 H37            6.3785     3.5827    -9.8330 H       
  38 H38            3.0539     3.0419    -7.7188 H       
  39 H39            2.4243     4.9810     0.2059 H       
  40 H40           -1.7250     6.7622    -1.0610 H       
  41 H41           -1.8217     2.6402    -2.1570 H       
  42 H42            0.4473     2.3394    -1.2518 H       
@<TRIPOS>BOND
   1    1    2 1
   2    1    5 1
   3    2    3 2
   4    3    4 1
   5    3   28 1
   6    4    5 ar
   7    4    9 ar
   8    5    6 ar
   9    6    7 ar
  10    6   19 1
  11    7    8 ar
  12    7   10 1
  13    8    9 ar
  14    8   29 1
  15    9   30 1
  16   10   11 2
  17   10   12 am
  18   12   13 1
  19   12   31 1
  20   13   14 1
  21   14   15 1
  22   14   32 1
  23   14   33 1
  24   15   16 1
  25   15   18 1
  26   15   34 1
  27   16   17 1
  28   16   35 1
  29   16   36 1
  30   17   37 1
  31   18   38 1
  32   19   20 1
  33   19   39 1
  34   20   21 ar
  35   20   25 ar
  36   21   22 ar
  37   21   27 1
  38   22   23 ar
  39   22   40 1
  40   23   24 ar
  41   23   26 1
  42   24   25 ar
  43   24   41 1
  44   25   42 1

#	End of record

