#	Name: ASD03700004
#	Creating user name:	WinNT
#	Creation time:	15. 06. 2019 20:43

#	Modifying user name:	WinNT
#	Modification time:	15. 06. 2019 20:43

#	Program:	/corina/corina34_cracker 3.40 0067  02.08.2006

@<TRIPOS>MOLECULE
ASD03700004
  58   61    0    0    0
SMALL
NO_CHARGES


@<TRIPOS>ATOM
   1 C1            -0.2442     1.0287    -0.1389 C.ar    
   2 C2             0.2249     0.5886    -1.3849 C.ar    
   3 C3            -0.4293     0.9195    -2.5364 C.ar    
   4 C4            -1.5885     1.7106    -2.4782 C.ar    
   5 C5            -2.0601     2.1531    -1.2182 C.ar    
   6 C6            -1.3707     1.7943    -0.0502 C.ar    
   7 N7            -2.2467     2.0483    -3.5935 N.ar    
   8 C8            -3.3307     2.7870    -3.5561 C.ar    
   9 C9            -3.8547     3.2588    -2.3591 C.ar    
  10 C10           -3.2267     2.9487    -1.1657 C.ar    
  11 O11            0.4267     0.6847     0.9927 O.3     
  12 C12           -0.1014     1.1640     2.2310 C.3     
  13 C13            1.7750    -0.5950    -2.7442 C.3     
  14 O14            1.3459    -0.1770    -1.4469 O.3     
  15 O15           -3.7153     3.3953     0.0177 O.3     
  16 C16           -4.8990     4.0623     0.0081 C.ar    
  17 C17           -4.9098     5.4198     0.1622 C.ar    
  18 C18           -6.1333     6.1101     0.1520 C.ar    
  19 C19           -7.3379     5.3855    -0.0183 C.ar    
  20 C20           -7.2914     3.9929    -0.1733 C.ar    
  21 C21           -6.0904     3.3516    -0.1649 C.ar    
  22 C22           -6.1808     7.5069     0.3084 C.ar    
  23 C23           -7.3786     8.1560     0.2962 C.ar    
  24 C24           -8.5710     7.4621     0.1307 C.ar    
  25 C25           -8.5713     6.0844    -0.0283 C.ar    
  26 C26           -9.8406     5.3544    -0.2034 C.2     
  27 N27          -11.0137     6.0125    -0.1187 N.am    
  28 O28           -9.8288     4.1586    -0.4242 O.2     
  29 C29          -12.2747     5.2872    -0.2926 C.3     
  30 C30          -12.3859     4.1948     0.7728 C.3     
  31 C31          -13.4466     6.2603    -0.1496 C.3     
  32 C32          -12.3084     4.6491    -1.6828 C.3     
  33 H33           -0.0565     0.5742    -3.4894 H       
  34 H34           -1.7252     2.1286     0.9136 H       
  35 H35           -3.8291     3.0353    -4.4815 H       
  36 H36           -4.7486     3.8648    -2.3599 H       
  37 H37           -0.1191     2.2538     2.2209 H       
  38 H38           -1.1147     0.7853     2.3647 H       
  39 H39            0.5269     0.8184     3.0520 H       
  40 H40            0.9895    -1.1873    -3.2134 H       
  41 H41            1.9846     0.2814    -3.3575 H       
  42 H42            2.6783    -1.1979    -2.6514 H       
  43 H43           -3.9831     5.9591     0.2914 H       
  44 H44           -8.2046     3.4313    -0.3037 H       
  45 H45           -6.0584     2.2788    -0.2846 H       
  46 H46           -5.2661     8.0660     0.4387 H       
  47 H47           -7.4018     9.2289     0.4176 H       
  48 H48           -9.5069     8.0010     0.1255 H       
  49 H49          -11.0231     6.9663     0.0574 H       
  50 H50          -12.3619     4.6495     1.7632 H       
  51 H51          -13.3241     3.6552     0.6434 H       
  52 H52          -11.5510     3.5016     0.6709 H       
  53 H53          -13.3674     7.0386    -0.9087 H       
  54 H54          -14.3848     5.7207    -0.2791 H       
  55 H55          -13.4226     6.7150     0.8407 H       
  56 H56          -11.4735     3.9558    -1.7847 H       
  57 H57          -13.2466     4.1095    -1.8122 H       
  58 H58          -12.2292     5.4273    -2.4419 H       
@<TRIPOS>BOND
   1    1    2 ar
   2    1   11 1
   3    1    6 ar
   4    2    3 ar
   5    2   14 1
   6    3    4 ar
   7    3   33 1
   8    4    5 ar
   9    4    7 ar
  10    5    6 ar
  11    5   10 ar
  12    6   34 1
  13    7    8 ar
  14    8    9 ar
  15    8   35 1
  16    9   10 ar
  17    9   36 1
  18   10   15 1
  19   11   12 1
  20   12   37 1
  21   12   38 1
  22   12   39 1
  23   13   14 1
  24   13   40 1
  25   13   41 1
  26   13   42 1
  27   15   16 1
  28   16   17 ar
  29   16   21 ar
  30   17   18 ar
  31   17   43 1
  32   18   19 ar
  33   18   22 ar
  34   19   20 ar
  35   19   25 ar
  36   20   21 ar
  37   20   44 1
  38   21   45 1
  39   22   23 ar
  40   22   46 1
  41   23   24 ar
  42   23   47 1
  43   24   25 ar
  44   24   48 1
  45   25   26 1
  46   26   27 am
  47   26   28 2
  48   27   29 1
  49   27   49 1
  50   29   30 1
  51   29   32 1
  52   29   31 1
  53   30   50 1
  54   30   51 1
  55   30   52 1
  56   31   53 1
  57   31   54 1
  58   31   55 1
  59   32   56 1
  60   32   57 1
  61   32   58 1

#	End of record

