#	Name: ASD01811347
#	Creating user name:	WinNT
#	Creation time:	15. 06. 2019 19:26

#	Modifying user name:	WinNT
#	Modification time:	15. 06. 2019 19:26

#	Program:	/corina/corina34_cracker 3.40 0067  02.08.2006

@<TRIPOS>MOLECULE
ASD01811347
  65   69    0    0    0
SMALL
NO_CHARGES


@<TRIPOS>ATOM
   1 C1            -0.1938     1.6815    -1.1632 C.2     
   2 C2            -0.1603     0.2296    -1.4219 C.ar    
   3 C3             0.8624    -0.3309    -2.2029 C.ar    
   4 C4             0.8540    -1.6825    -2.4171 C.ar    
   5 C5            -0.1613    -2.4572    -1.8583 C.ar    
   6 N6            -1.1160    -1.9026    -1.1241 N.ar    
   7 C7            -1.1419    -0.6072    -0.8888 C.ar    
   8 O8             0.6686     2.4020    -1.6279 O.2     
   9 N9            -1.1834     2.2103    -0.4165 N.am    
  10 C10           -1.1615     3.5698    -0.0878 C.ar    
  11 C11           -2.3539     4.2707     0.0506 C.ar    
  12 C12           -2.3376     5.6139     0.3758 C.ar    
  13 C13           -1.1372     6.2684     0.5653 C.ar    
  14 C14            0.0656     5.5736     0.4287 C.ar    
  15 C15            0.0491     4.2167     0.1056 C.ar    
  16 C16           -3.6688     3.5638    -0.1551 C.3     
  17 F17           -4.7192     4.4678     0.0362 F       
  18 F18           -3.7248     3.0524    -1.4560 F       
  19 F19           -3.7831     2.5149     0.7637 F       
  20 C20            1.3529     6.2724     0.6306 C.2     
  21 O21            2.2228     5.7602     1.3077 O.2     
  22 N22            1.5618     7.4772     0.0638 N.am    
  23 C23            2.8685     8.1399     0.1740 C.3     
  24 C24            3.3575     8.5026    -1.2318 C.3     
  25 C25            2.2876     9.3366    -1.9403 C.3     
  26 C26            1.0030     8.5153    -2.0727 C.3     
  27 C27            0.4891     8.1501    -0.6813 C.3     
  28 F28            2.0276    10.4916    -1.1949 F       
  29 C29            2.7793     9.7241    -3.3111 C.ar    
  30 C30            2.1349    10.7250    -4.0163 C.ar    
  31 C31            2.5796    11.0847    -5.2716 C.ar    
  32 C32            3.6831    10.4365    -5.8300 C.ar    
  33 C33            4.3289     9.4276    -5.1126 C.ar    
  34 C34            3.8765     9.0812    -3.8563 C.ar    
  35 C35            4.1500    10.8044    -7.1328 C.1     
  36 N36            4.5205    11.0963    -8.1663 N.1     
  37 N37           -0.1732    -3.8250    -2.0733 N.3     
  38 C38           -1.3236    -4.4559    -1.3998 C.3     
  39 C39           -1.5071    -5.3269    -2.6505 C.3     
  40 C40           -0.8176    -4.1524    -3.3588 C.3     
  41 H41            1.6381     0.2904    -2.6256 H       
  42 H42            1.6265    -2.1446    -3.0138 H       
  43 H43           -1.9313    -0.1885    -0.2822 H       
  44 H44           -1.9109     1.6481    -0.1071 H       
  45 H45           -3.2672     6.1533     0.4816 H       
  46 H46           -1.1287     7.3181     0.8190 H       
  47 H47            0.9765     3.6729     0.0025 H       
  48 H48            2.7694     9.0460     0.7716 H       
  49 H49            3.5821     7.4645     0.6461 H       
  50 H50            4.2793     9.0798    -1.1586 H       
  51 H51            3.5428     7.5906    -1.7992 H       
  52 H52            0.2490     9.1014    -2.5981 H       
  53 H53            1.2105     7.6031    -2.6322 H       
  54 H54           -0.3669     7.4815    -0.7732 H       
  55 H55            0.1920     9.0571    -0.1548 H       
  56 H56            1.2815    11.2255    -3.5832 H       
  57 H57            2.0753    11.8657    -5.8213 H       
  58 H58            5.1830     8.9222    -5.5387 H       
  59 H59            4.3776     8.3039    -3.2986 H       
  60 H60           -1.0484    -5.0243    -0.5114 H       
  61 H61           -2.1523    -3.7705    -1.2225 H       
  62 H62           -0.9240    -6.2478    -2.6426 H       
  63 H63           -2.5468    -5.4757    -2.9421 H       
  64 H64           -1.5114    -3.3859    -3.7043 H       
  65 H65           -0.1136    -4.4635    -4.1306 H       
@<TRIPOS>BOND
   1    1    2 1
   2    1    8 2
   3    1    9 am
   4    2    3 ar
   5    2    7 ar
   6    3    4 ar
   7    3   41 1
   8    4    5 ar
   9    4   42 1
  10    5    6 ar
  11    5   37 1
  12    6    7 ar
  13    7   43 1
  14    9   10 1
  15    9   44 1
  16   10   11 ar
  17   10   15 ar
  18   11   12 ar
  19   11   16 1
  20   12   13 ar
  21   12   45 1
  22   13   14 ar
  23   13   46 1
  24   14   15 ar
  25   14   20 1
  26   15   47 1
  27   16   17 1
  28   16   18 1
  29   16   19 1
  30   20   21 2
  31   20   22 am
  32   22   23 1
  33   22   27 1
  34   23   24 1
  35   23   48 1
  36   23   49 1
  37   24   25 1
  38   24   50 1
  39   24   51 1
  40   25   26 1
  41   25   28 1
  42   25   29 1
  43   26   27 1
  44   26   52 1
  45   26   53 1
  46   27   54 1
  47   27   55 1
  48   29   30 ar
  49   29   34 ar
  50   30   31 ar
  51   30   56 1
  52   31   32 ar
  53   31   57 1
  54   32   33 ar
  55   32   35 1
  56   33   34 ar
  57   33   58 1
  58   34   59 1
  59   35   36 3
  60   37   38 1
  61   37   40 1
  62   38   39 1
  63   38   60 1
  64   38   61 1
  65   39   40 1
  66   39   62 1
  67   39   63 1
  68   40   64 1
  69   40   65 1

#	End of record

