#	Name: ASD04910164
#	Creating user name:	WinNT
#	Creation time:	15. 06. 2019 20:55

#	Modifying user name:	WinNT
#	Modification time:	15. 06. 2019 20:55

#	Program:	/corina/corina34_cracker 3.40 0067  02.08.2006

@<TRIPOS>MOLECULE
ASD04910164
  26   27    0    0    0
SMALL
NO_CHARGES


@<TRIPOS>ATOM
   1 C1             0.0499     1.4877     0.0634 C.ar    
   2 C2            -0.0583     0.1095    -0.0546 C.ar    
   3 C3             1.0797    -0.6692    -0.1236 C.ar    
   4 C4             2.3326    -0.0729    -0.0748 C.ar    
   5 C5             2.4403     1.3062     0.0433 C.ar    
   6 C6             1.3017     2.0840     0.1122 C.ar    
   7 O7            -1.0709     2.2544     0.1256 O.3     
   8 C8             3.7999     1.9541     0.0967 C.3     
   9 C9             0.9620    -2.1661    -0.2512 C.3     
  10 N10            3.4892    -0.8637    -0.1444 N.pl3   
  11 N11            3.8046    -1.9404     0.6946 N.2     
  12 C12            4.9612    -2.4263     0.3213 C.2     
  13 C13            5.4233    -1.6778    -0.7671 C.2     
  14 C14            4.5003    -0.7257    -1.0409 C.2     
  15 Cl15           6.9138    -1.9302    -1.6206 Cl      
  16 H16           -1.0329    -0.3543    -0.0922 H       
  17 H17            1.3854     3.1569     0.2037 H       
  18 H18           -1.3978     2.4011     1.0238 H       
  19 H19            4.1635     2.1200    -0.9174 H       
  20 H20            3.7272     2.9089     0.6174 H       
  21 H21            4.4925     1.3019     0.6288 H       
  22 H22            0.8858    -2.4361    -1.3045 H       
  23 H23            1.8439    -2.6382     0.1819 H       
  24 H24            0.0713    -2.5069     0.2765 H       
  25 H25            5.4719    -3.2624     0.7757 H       
  26 H26            4.5587     0.0118    -1.8278 H       
@<TRIPOS>BOND
   1    1    2 ar
   2    1    6 ar
   3    1    7 1
   4    2    3 ar
   5    2   16 1
   6    3    4 ar
   7    3    9 1
   8    4    5 ar
   9    4   10 1
  10    5    6 ar
  11    5    8 1
  12    6   17 1
  13    7   18 1
  14    8   19 1
  15    8   20 1
  16    8   21 1
  17    9   22 1
  18    9   23 1
  19    9   24 1
  20   10   11 1
  21   10   14 1
  22   11   12 2
  23   12   13 1
  24   12   25 1
  25   13   14 2
  26   13   15 1
  27   14   26 1

#	End of record

