#	Name: ASD00069161
#	Creating user name:	WinNT
#	Creation time:	15. 06. 2019 18:29

#	Modifying user name:	WinNT
#	Modification time:	15. 06. 2019 18:29

#	Program:	/corina/corina34_cracker 3.40 0067  02.08.2006

@<TRIPOS>MOLECULE
ASD00069161
  58   61    0    0    0
SMALL
NO_CHARGES


@<TRIPOS>ATOM
   1 C1            -0.0972     1.1981    -0.5381 C.2     
   2 N2             0.0007    -0.0058    -0.0196 N.2     
   3 C3             1.2451    -0.4623    -0.2084 C.2     
   4 C4             1.9523     0.5003    -0.8738 C.2     
   5 N5             1.1116     1.5384    -1.0795 N.pl3   
   6 C6            -1.3087     2.0381    -0.5412 C.2     
   7 O7            -1.2827     3.1411    -1.0531 O.2     
   8 N8            -2.4452     1.5838     0.0232 N.am    
   9 C9             1.4696    -3.9038     1.2930 C.ar    
  10 C10            0.9453    -2.6881     0.9050 C.ar    
  11 C11            1.7656    -1.7808     0.2284 C.ar    
  12 C12            3.0899    -2.1502    -0.0258 C.ar    
  13 C13            3.5329    -3.3858     0.3973 C.ar    
  14 N14            2.7255    -4.2135     1.0334 N.ar    
  15 C15            0.5978    -4.8886     2.0287 C.3     
  16 C16           -3.5605     2.4244     0.1262 C.ar    
  17 C17           -4.8463     1.8956     0.0209 C.ar    
  18 C18           -5.9478     2.7347     0.1244 C.ar    
  19 C19           -5.7665     4.0913     0.3316 C.ar    
  20 C20           -4.4906     4.6140     0.4353 C.ar    
  21 C21           -3.3890     3.7844     0.3391 C.ar    
  22 N22           -5.0263     0.5225    -0.1892 N.3     
  23 C23           -5.7972    -0.0807     0.9054 C.3     
  24 C24           -5.8495    -1.5987     0.7182 C.3     
  25 C25           -6.5033    -1.9197    -0.6287 C.3     
  26 C26           -5.7091    -1.2399    -1.7475 C.3     
  27 C27           -5.6608     0.2677    -1.4888 C.3     
  28 C28           -6.5035    -3.4337    -0.8491 C.3     
  29 N29           -7.2361    -3.7489    -2.0827 N.3     
  30 C30           -7.2570    -5.1973    -2.3271 C.3     
  31 F31           -7.1958     2.2274     0.0226 F       
  32 H32            2.9871     0.4422    -1.1774 H       
  33 H33            1.3260     2.3711    -1.5286 H       
  34 H34           -2.4905     0.6745     0.3581 H       
  35 H35           -0.0838    -2.4413     1.1204 H       
  36 H36            3.7560    -1.4780    -0.5462 H       
  37 H37            4.5541    -3.6802     0.2052 H       
  38 H38            0.0966    -5.5374     1.3105 H       
  39 H39            1.2140    -5.4920     2.6953 H       
  40 H40           -0.1476    -4.3486     2.6125 H       
  41 H41           -6.6238     4.7431     0.4120 H       
  42 H42           -4.3543     5.6732     0.5966 H       
  43 H43           -2.3943     4.1960     0.4255 H       
  44 H44           -5.3193     0.1515     1.8572 H       
  45 H45           -6.8105     0.3209     0.9004 H       
  46 H46           -4.8374    -2.0028     0.7369 H       
  47 H47           -6.4349    -2.0446     1.5223 H       
  48 H48           -7.5286    -1.5498    -0.6333 H       
  49 H49           -4.6947    -1.6383    -1.7676 H       
  50 H50           -6.1941    -1.4295    -2.7051 H       
  51 H51           -6.6747     0.6677    -1.4826 H       
  52 H52           -5.0839     0.7530    -2.2760 H       
  53 H53           -5.4765    -3.7885    -0.9357 H       
  54 H54           -6.9871    -3.9238    -0.0040 H       
  55 H55           -8.1722    -3.3736    -2.0533 H       
  56 H56           -6.2352    -5.5642    -2.4240 H       
  57 H57           -7.7459    -5.6996    -1.4923 H       
  58 H58           -7.8056    -5.4028    -3.2464 H       
@<TRIPOS>BOND
   1    1    2 2
   2    1    5 1
   3    1    6 1
   4    2    3 1
   5    3    4 2
   6    3   11 1
   7    4    5 1
   8    4   32 1
   9    5   33 1
  10    6    7 2
  11    6    8 am
  12    8   16 1
  13    8   34 1
  14    9   10 ar
  15    9   14 ar
  16    9   15 1
  17   10   11 ar
  18   10   35 1
  19   11   12 ar
  20   12   13 ar
  21   12   36 1
  22   13   14 ar
  23   13   37 1
  24   15   38 1
  25   15   39 1
  26   15   40 1
  27   16   17 ar
  28   16   21 ar
  29   17   18 ar
  30   17   22 1
  31   18   19 ar
  32   18   31 1
  33   19   20 ar
  34   19   41 1
  35   20   21 ar
  36   20   42 1
  37   21   43 1
  38   22   23 1
  39   22   27 1
  40   23   24 1
  41   23   44 1
  42   23   45 1
  43   24   25 1
  44   24   46 1
  45   24   47 1
  46   25   26 1
  47   25   28 1
  48   25   48 1
  49   26   27 1
  50   26   49 1
  51   26   50 1
  52   27   51 1
  53   27   52 1
  54   28   29 1
  55   28   53 1
  56   28   54 1
  57   29   30 1
  58   29   55 1
  59   30   56 1
  60   30   57 1
  61   30   58 1

#	End of record

