#	Name: ASD05430341
#	Creating user name:	WinNT
#	Creation time:	15. 06. 2019 21:00

#	Modifying user name:	WinNT
#	Modification time:	15. 06. 2019 21:00

#	Program:	/corina/corina34_cracker 3.40 0067  02.08.2006

@<TRIPOS>MOLECULE
ASD05430341
  58   62    0    0    0
SMALL
NO_CHARGES


@<TRIPOS>ATOM
   1 C1            -1.0619    -0.5625    -0.4038 C.ar    
   2 C2            -0.0106    -0.0084     0.3272 C.ar    
   3 C3            -0.1713     1.2170     0.9631 C.ar    
   4 C4            -1.3690     1.8905     0.8749 C.ar    
   5 C5            -2.4289     1.3409     0.1431 C.ar    
   6 C6            -2.2646     0.1093    -0.5018 C.ar    
   7 C7            -4.8935    -0.1390     0.1074 C.3     
   8 C8            -4.8659     1.3645    -0.0472 C.2     
   9 C9            -3.7079     2.0574     0.0480 C.2     
  10 C10           -6.2241    -0.5776     0.7203 C.3     
  11 C11           -7.3894    -0.1239    -0.1682 C.3     
  12 N12           -7.2857     1.3211    -0.3600 N.pl3   
  13 C13           -6.1031     2.0258    -0.2974 C.2     
  14 C14           -9.3485     2.3274     0.4764 C.ar    
  15 C15          -10.4292     3.1868     0.4073 C.ar    
  16 C16           -9.1975     1.4915     1.5671 C.ar    
  17 C17          -10.1271     1.5137     2.5894 C.ar    
  18 C18          -11.2099     2.3739     2.5212 C.ar    
  19 C19          -11.3599     3.2110     1.4286 C.ar    
  20 F20          -12.1196     2.3961     3.5198 F       
  21 O21           -0.9006    -1.7614    -1.0242 O.3     
  22 C22           -2.0186    -2.2693    -1.7551 C.3     
  23 C23            2.4544    -0.1661     0.1824 C.2     
  24 N24            1.2092    -0.6886     0.4208 N.pl3   
  25 C25            3.3400    -1.1593     0.3882 C.2     
  26 N26            2.6602    -2.2601     0.7428 N.2     
  27 C27            1.3833    -1.9912     0.7659 C.2     
  28 C28            4.8363    -1.0528     0.2447 C.3     
  29 C29           -8.3377     2.2975    -0.6409 C.3     
  30 C30           -7.5784     3.6103    -0.7125 C.2     
  31 N31           -6.2994     3.3128    -0.4969 N.2     
  32 C32           -9.0162     1.9916    -1.9777 C.3     
  33 O33           -8.0453     4.7125    -0.9244 O.2     
  34 H34            0.6452     1.6418     1.5280 H       
  35 H35           -1.4911     2.8424     1.3703 H       
  36 H36           -3.0792    -0.3185    -1.0674 H       
  37 H37           -4.7744    -0.6054    -0.8705 H       
  38 H38           -4.0758    -0.4508     0.7571 H       
  39 H39           -3.7237     3.1372     0.0541 H       
  40 H40           -6.2399    -1.6638     0.8102 H       
  41 H41           -6.3300    -0.1334     1.7100 H       
  42 H42           -7.3332    -0.6274    -1.1333 H       
  43 H43           -8.3358    -0.3630     0.3168 H       
  44 H44          -10.5461     3.8396    -0.4451 H       
  45 H45           -8.3528     0.8205     1.6200 H       
  46 H46          -10.0093     0.8600     3.4410 H       
  47 H47          -12.2039     3.8827     1.3745 H       
  48 H48           -1.7563    -3.2294    -2.1995 H       
  49 H49           -2.8646    -2.4002    -1.0804 H       
  50 H50           -2.2876    -1.5657    -2.5429 H       
  51 H51            2.6809     0.8464    -0.1175 H       
  52 H52            0.5969    -2.6873     1.0176 H       
  53 H53            5.2725    -0.7550     1.1981 H       
  54 H54            5.2423    -2.0191    -0.0547 H       
  55 H55            5.0764    -0.3072    -0.5134 H       
  56 H56           -9.4597     0.9966    -1.9408 H       
  57 H57           -9.7954     2.7299    -2.1670 H       
  58 H58           -8.2768     2.0304    -2.7777 H       
@<TRIPOS>BOND
   1    1    2 ar
   2    1   21 1
   3    1    6 ar
   4    2    3 ar
   5    2   24 1
   6    3    4 ar
   7    3   34 1
   8    4    5 ar
   9    4   35 1
  10    5    6 ar
  11    5    9 1
  12    6   36 1
  13    7    8 1
  14    7   10 1
  15    7   37 1
  16    7   38 1
  17    8    9 2
  18    8   13 1
  19    9   39 1
  20   10   11 1
  21   10   40 1
  22   10   41 1
  23   11   12 1
  24   11   42 1
  25   11   43 1
  26   12   13 1
  27   12   29 1
  28   13   31 2
  29   14   15 ar
  30   14   16 ar
  31   14   29 1
  32   15   19 ar
  33   15   44 1
  34   16   17 ar
  35   16   45 1
  36   17   18 ar
  37   17   46 1
  38   18   19 ar
  39   18   20 1
  40   19   47 1
  41   21   22 1
  42   22   48 1
  43   22   49 1
  44   22   50 1
  45   23   24 1
  46   23   25 2
  47   23   51 1
  48   24   27 1
  49   25   26 1
  50   25   28 1
  51   26   27 2
  52   27   52 1
  53   28   53 1
  54   28   54 1
  55   28   55 1
  56   29   30 1
  57   29   32 1
  58   30   31 1
  59   30   33 2
  60   32   56 1
  61   32   57 1
  62   32   58 1

#	End of record

