#	Name: ASD03090814
#	Creating user name:	WinNT
#	Creation time:	15. 06. 2019 20:29

#	Modifying user name:	WinNT
#	Modification time:	15. 06. 2019 20:29

#	Program:	/corina/corina34_cracker 3.40 0067  02.08.2006

@<TRIPOS>MOLECULE
ASD03090814
  47   51    0    0    0
SMALL
NO_CHARGES


@<TRIPOS>ATOM
   1 N1            -0.0211     1.3518    -0.1117 N.am    
   2 C2             0.0025    -0.0032    -0.0015 C.2     
   3 N3            -1.0656    -0.7315     0.1203 N.2     
   4 C4            -2.3025    -0.1773     0.1462 C.ar    
   5 C5            -2.4257     1.2273     0.0377 C.ar    
   6 C6            -1.1968     2.0245    -0.0934 C.2     
   7 O7            -1.2350     3.2369    -0.1907 O.2     
   8 C8            -3.4625    -0.9432     0.2760 C.ar    
   9 N9            -4.6421    -0.3598     0.2958 N.ar    
  10 C10           -4.7924     0.9542     0.1964 C.ar    
  11 C11           -3.6951     1.7957     0.0635 C.ar    
  12 N12           -6.0728     1.4998     0.2246 N.3     
  13 C13           -7.0900     0.4490     0.3692 C.3     
  14 C14           -8.2167     0.9219     1.2755 C.3     
  15 C15           -9.1307     1.9370     0.6193 C.3     
  16 N16           -8.7772     2.1512    -0.7913 N.3     
  17 C17           -7.6368     3.0749    -0.8892 C.3     
  18 C18           -6.3280     2.3053    -0.9755 C.3     
  19 C19           -8.6673     0.9166    -1.5383 C.3     
  20 C20           -7.5610     0.0193    -1.0082 C.3     
  21 C21            1.3401    -0.6971    -0.0223 C.3     
  22 C22            2.0908    -0.8240     1.3048 C.3     
  23 C23            1.4415    -2.0566     0.6722 C.3     
  24 C24            1.2365     2.0914    -0.2454 C.3     
  25 H25           -3.3918    -2.0176     0.3600 H       
  26 H26           -3.8243     2.8650    -0.0166 H       
  27 H27           -6.6183    -0.4146     0.8381 H       
  28 H28           -8.8109     0.0583     1.5741 H       
  29 H29           -7.7819     1.3695     2.1692 H       
  30 H30          -10.1591     1.5805     0.6783 H       
  31 H31           -9.0526     2.8839     1.1535 H       
  32 H32           -7.7499     3.6919    -1.7806 H       
  33 H33           -7.6183     3.7172    -0.0088 H       
  34 H34           -5.5098     3.0136    -1.1058 H       
  35 H35           -6.3628     1.6457    -1.8426 H       
  36 H36           -9.6152     0.3818    -1.4787 H       
  37 H37           -8.4615     1.1522    -2.5824 H       
  38 H38           -6.7172     0.0524    -1.6974 H       
  39 H39           -7.9312    -1.0044    -0.9527 H       
  40 H40            1.9338    -0.5466    -0.9240 H       
  41 H41            3.1784    -0.7575     1.2762 H       
  42 H42            1.6172    -0.4057     2.1929 H       
  43 H43            0.5408    -2.4491     1.1441 H       
  44 H44            2.1020    -2.8009     0.2274 H       
  45 H45            1.5365     2.1116    -1.2931 H       
  46 H46            1.0979     3.1115     0.1126 H       
  47 H47            2.0107     1.6012     0.3448 H       
@<TRIPOS>BOND
   1    1    2 1
   2    1   24 1
   3    1    6 am
   4    2    3 2
   5    2   21 1
   6    3    4 1
   7    4    5 ar
   8    4    8 ar
   9    5    6 1
  10    5   11 ar
  11    6    7 2
  12    8    9 ar
  13    8   25 1
  14    9   10 ar
  15   10   11 ar
  16   10   12 1
  17   11   26 1
  18   12   13 1
  19   12   18 1
  20   13   14 1
  21   13   20 1
  22   13   27 1
  23   14   15 1
  24   14   28 1
  25   14   29 1
  26   15   16 1
  27   15   30 1
  28   15   31 1
  29   16   17 1
  30   16   19 1
  31   17   18 1
  32   17   32 1
  33   17   33 1
  34   18   34 1
  35   18   35 1
  36   19   20 1
  37   19   36 1
  38   19   37 1
  39   20   38 1
  40   20   39 1
  41   21   22 1
  42   21   23 1
  43   21   40 1
  44   22   23 1
  45   22   41 1
  46   22   42 1
  47   23   43 1
  48   23   44 1
  49   24   45 1
  50   24   46 1
  51   24   47 1

#	End of record

