#	Name: ASD08070226
#	Creating user name:	WinNT
#	Creation time:	15. 06. 2019 21:14

#	Modifying user name:	WinNT
#	Modification time:	15. 06. 2019 21:14

#	Program:	/corina/corina34_cracker 3.40 0067  02.08.2006

@<TRIPOS>MOLECULE
ASD08070226
  31   32    0    0    0
SMALL
NO_CHARGES


@<TRIPOS>ATOM
   1 C1            -0.0169     1.3971     0.0097 C.ar    
   2 C2             0.0021    -0.0041     0.0020 C.ar    
   3 C3             1.2404     2.1529     0.0018 C.2     
   4 C4             2.5585     1.4225    -0.0147 C.3     
   5 O5             1.2191     3.3658     0.0085 O.2     
   6 C6             3.6865     2.4218    -0.0201 C.ar    
   7 C7             5.0961     3.9564    -1.2059 C.ar    
   8 C8             5.7578     4.2553    -0.0297 C.ar    
   9 C9             4.3528     2.7182     1.1535 C.ar    
  10 C10            5.3879     3.6350     1.1488 C.ar    
  11 C11            4.0594     3.0390    -1.2023 C.ar    
  12 F12            3.4123     2.7458    -2.3514 F       
  13 C13           -1.1843    -0.7069     0.0096 C.ar    
  14 C14           -2.3953    -0.0349     0.0244 C.ar    
  15 C15           -2.4301     1.3469     0.0317 C.ar    
  16 C16           -1.2484     2.0731     0.0193 C.ar    
  17 Cl17           1.5160    -0.8533    -0.0176 Cl      
  18 Cl18          -3.9557     2.1751     0.0496 Cl      
  19 O19           -1.2815     3.4290     0.0264 O.3     
  20 C20           -1.2801     4.0712     1.3029 C.3     
  21 H21            2.6357     0.7922     0.8712 H       
  22 H22            2.6187     0.8017    -0.9087 H       
  23 H23            5.3881     4.4382    -2.1274 H       
  24 H24            6.5669     4.9707    -0.0323 H       
  25 H25            4.0649     2.2339     2.0748 H       
  26 H26            5.9079     3.8664     2.0667 H       
  27 H27           -1.1691    -1.7867     0.0037 H       
  28 H28           -3.3190    -0.5945     0.0299 H       
  29 H29           -2.1550     3.7539     1.8703 H       
  30 H30           -0.3758     3.7975     1.8464 H       
  31 H31           -1.3085     5.1522     1.1658 H       
@<TRIPOS>BOND
   1    1    2 ar
   2    1    3 1
   3    1   16 ar
   4    2   13 ar
   5    2   17 1
   6    3    4 1
   7    3    5 2
   8    4    6 1
   9    4   21 1
  10    4   22 1
  11    6    9 ar
  12    6   11 ar
  13    7   11 ar
  14    7    8 ar
  15    7   23 1
  16    8   10 ar
  17    8   24 1
  18    9   10 ar
  19    9   25 1
  20   10   26 1
  21   11   12 1
  22   13   14 ar
  23   13   27 1
  24   14   15 ar
  25   14   28 1
  26   15   16 ar
  27   15   18 1
  28   16   19 1
  29   19   20 1
  30   20   29 1
  31   20   30 1
  32   20   31 1

#	End of record

