#	Name: ASD02398020
#	Creating user name:	WinNT
#	Creation time:	15. 06. 2019 20:20

#	Modifying user name:	WinNT
#	Modification time:	15. 06. 2019 20:20

#	Program:	/corina/corina34_cracker 3.40 0067  02.08.2006

@<TRIPOS>MOLECULE
ASD02398020
  63   66    0    0    0
SMALL
NO_CHARGES


@<TRIPOS>ATOM
   1 C1            -0.2009     1.0113    -0.7708 C.ar    
   2 C2             0.0496    -0.3600    -0.6599 C.ar    
   3 C3            -1.0167    -1.2541    -0.6068 C.ar    
   4 C4            -2.3134    -0.7839    -0.6638 C.ar    
   5 C5            -2.5582     0.5733    -0.7734 C.ar    
   6 C6            -1.5072     1.4698    -0.8216 C.ar    
   7 C7            -3.4664    -1.7526    -0.6067 C.3     
   8 C8            -3.9656    -1.8564     0.8114 C.2     
   9 O9            -3.4018    -1.2565     1.6958 O.2     
  10 O10           -5.0366    -2.6153     1.0920 O.3     
  11 C11            1.4448    -0.8600    -0.5996 C.ar    
  12 C12            2.2634    -0.5212     0.4765 C.ar    
  13 C13            1.9402    -1.6748    -1.6157 C.ar    
  14 C14            3.2392    -2.1376    -1.5541 C.ar    
  15 C15            4.0486    -1.7939    -0.4866 C.ar    
  16 C16            3.5604    -0.9895     0.5276 C.ar    
  17 C17            1.7332     0.3554     1.5817 C.3     
  18 N18            1.0370    -0.4723     2.5699 N.am    
  19 C19            1.6184    -1.1386     3.5768 C.2     
  20 O20            0.7589    -1.8217     4.3411 O.3     
  21 C21           -0.5951    -1.6332     3.8372 C.3     
  22 C22           -0.4149    -0.7023     2.6226 C.3     
  23 O23            2.8168    -1.1239     3.7770 O.2     
  24 C24           -1.1669     0.6128     2.8371 C.3     
  25 C25           -1.4596    -0.9725     4.8799 C.ar    
  26 C26           -2.8041    -1.2833     4.9611 C.ar    
  27 C27           -0.9069    -0.0598     5.7587 C.ar    
  28 C28           -1.6999     0.5463     6.7152 C.ar    
  29 C29           -3.0456     0.2400     6.7925 C.ar    
  30 C30           -3.5971    -0.6773     5.9175 C.ar    
  31 O31            0.8329     1.8911    -0.8227 O.3     
  32 C32            0.5008     3.2763    -0.9360 C.3     
  33 C33           -5.5238    -2.5879     2.4596 C.3     
  34 C34            5.4658    -2.3027    -0.4249 C.3     
  35 F35            5.7266    -3.0939    -1.5488 F       
  36 F36            6.3499    -1.2187    -0.4023 F       
  37 F37            5.6365    -3.0679     0.7339 F       
  38 H38           -0.8294    -2.3144    -0.5216 H       
  39 H39           -3.5751     0.9342    -0.8175 H       
  40 H40           -1.7045     2.5282    -0.9072 H       
  41 H41           -4.2714    -1.3975    -1.2502 H       
  42 H42           -3.1344    -2.7332    -0.9478 H       
  43 H43            1.3089    -1.9441    -2.4495 H       
  44 H44            3.6241    -2.7695    -2.3408 H       
  45 H45            4.1969    -0.7243     1.3588 H       
  46 H46            2.5619     0.8753     2.0624 H       
  47 H47            1.0389     1.0852     1.1653 H       
  48 H48           -1.0252    -2.5869     3.5313 H       
  49 H49           -0.7531    -1.1935     1.7102 H       
  50 H50           -0.7799     1.1119     3.7255 H       
  51 H51           -1.0276     1.2568     1.9688 H       
  52 H52           -2.2290     0.4065     2.9698 H       
  53 H53           -3.2351    -1.9995     4.2771 H       
  54 H54            0.1445     0.1795     5.6984 H       
  55 H55           -1.2679     1.2588     7.4023 H       
  56 H56           -3.6651     0.7132     7.5400 H       
  57 H57           -4.6485    -0.9166     5.9779 H       
  58 H58           -0.0976     3.5780    -0.0763 H       
  59 H59            1.4157     3.8679    -0.9674 H       
  60 H60           -0.0691     3.4397    -1.8506 H       
  61 H61           -5.8481    -1.5778     2.7096 H       
  62 H62           -6.3644    -3.2746     2.5596 H       
  63 H63           -4.7247    -2.8909     3.1361 H       
@<TRIPOS>BOND
   1    1    2 ar
   2    1   31 1
   3    1    6 ar
   4    2    3 ar
   5    2   11 1
   6    3    4 ar
   7    3   38 1
   8    4    5 ar
   9    4    7 1
  10    5    6 ar
  11    5   39 1
  12    6   40 1
  13    7    8 1
  14    7   41 1
  15    7   42 1
  16    8    9 2
  17    8   10 1
  18   10   33 1
  19   11   12 ar
  20   11   13 ar
  21   12   17 1
  22   12   16 ar
  23   13   14 ar
  24   13   43 1
  25   14   15 ar
  26   14   44 1
  27   15   16 ar
  28   15   34 1
  29   16   45 1
  30   17   18 1
  31   17   46 1
  32   17   47 1
  33   18   19 am
  34   18   22 1
  35   19   20 1
  36   19   23 2
  37   20   21 1
  38   21   22 1
  39   21   25 1
  40   21   48 1
  41   22   24 1
  42   22   49 1
  43   24   50 1
  44   24   51 1
  45   24   52 1
  46   25   26 ar
  47   25   27 ar
  48   26   30 ar
  49   26   53 1
  50   27   28 ar
  51   27   54 1
  52   28   29 ar
  53   28   55 1
  54   29   30 ar
  55   29   56 1
  56   30   57 1
  57   31   32 1
  58   32   58 1
  59   32   59 1
  60   32   60 1
  61   33   61 1
  62   33   62 1
  63   33   63 1
  64   34   35 1
  65   34   36 1
  66   34   37 1

#	End of record

