#	Name: ASD01180348
#	Creating user name:	WinNT
#	Creation time:	15. 06. 2019 19:07

#	Modifying user name:	WinNT
#	Modification time:	15. 06. 2019 19:07

#	Program:	/corina/corina34_cracker 3.40 0067  02.08.2006

@<TRIPOS>MOLECULE
ASD01180348
  32   33    0    0    0
SMALL
NO_CHARGES


@<TRIPOS>ATOM
   1 C1            -0.0180     1.4730     0.0101 C.2     
   2 C2             0.0021    -0.0041     0.0020 C.ar    
   3 C3             1.2188    -0.6888    -0.0133 C.ar    
   4 C4             1.2303    -2.0682    -0.0203 C.ar    
   5 C5             0.0396    -2.7731    -0.0127 C.ar    
   6 C6            -1.1697    -2.1009     0.0020 C.ar    
   7 C7            -1.1956    -0.7217     0.0154 C.ar    
   8 O8             1.0256     2.0946     0.0035 O.2     
   9 O9            -1.1936     2.1307     0.0193 O.3     
  10 C10            0.0601    -4.2800    -0.0210 C.3     
  11 O11           -1.0296    -4.7754     0.7596 O.3     
  12 C12           -0.0724    -4.7839    -1.4595 C.3     
  13 C13           -0.0624    -6.3171    -1.5785 C.3     
  14 C14           -1.1603    -6.1631    -2.6442 C.3     
  15 C15           -1.5244    -4.8329    -1.9638 C.3     
  16 C16           -1.1373     3.5816     0.0269 C.3     
  17 H17            2.1488    -0.1398    -0.0199 H       
  18 H18            2.1707    -2.5992    -0.0321 H       
  19 H19           -2.0953    -2.6572     0.0071 H       
  20 H20           -2.1401    -0.1983     0.0318 H       
  21 H21            1.0004    -4.6329     0.4025 H       
  22 H22           -1.8996    -4.5001     0.4398 H       
  23 H23            0.6133    -4.2882    -2.1465 H       
  24 H24            0.8725    -6.7186    -1.9696 H       
  25 H25           -0.3985    -6.8273    -0.6758 H       
  26 H26           -0.7730    -6.0442    -3.6561 H       
  27 H27           -1.9442    -6.9174    -2.5757 H       
  28 H28           -2.2603    -4.9373    -1.1665 H       
  29 H29           -1.7698    -4.0361    -2.6659 H       
  30 H30           -2.1501     3.9844     0.0339 H       
  31 H31           -0.6055     3.9199     0.9162 H       
  32 H32           -0.6140     3.9295    -0.8637 H       
@<TRIPOS>BOND
   1    1    2 1
   2    1    8 2
   3    1    9 1
   4    2    3 ar
   5    2    7 ar
   6    3    4 ar
   7    3   17 1
   8    4    5 ar
   9    4   18 1
  10    5    6 ar
  11    5   10 1
  12    6    7 ar
  13    6   19 1
  14    7   20 1
  15    9   16 1
  16   10   11 1
  17   10   12 1
  18   10   21 1
  19   11   22 1
  20   12   13 1
  21   12   15 1
  22   12   23 1
  23   13   14 1
  24   13   24 1
  25   13   25 1
  26   14   15 1
  27   14   26 1
  28   14   27 1
  29   15   28 1
  30   15   29 1
  31   16   30 1
  32   16   31 1
  33   16   32 1

#	End of record

