#	Name: ASD02198820
#	Creating user name:	WinNT
#	Creation time:	15. 06. 2019 20:20

#	Modifying user name:	WinNT
#	Modification time:	15. 06. 2019 20:20

#	Program:	/corina/corina34_cracker 3.40 0067  02.08.2006

@<TRIPOS>MOLECULE
ASD02198820
  55   59    0    0    0
SMALL
NO_CHARGES


@<TRIPOS>ATOM
   1 C1            -0.0163     1.3526     0.0095 C.2     
   2 C2             0.0021    -0.0041     0.0020 C.2     
   3 N3             1.1721    -0.6813    -0.0123 N.pl3   
   4 N4             2.3180    -0.1068    -0.0202 N.2     
   5 C5             2.4432     1.2032    -0.0147 C.2     
   6 C6             1.2263     2.0305     0.0013 C.2     
   7 C7             1.1302    -2.0795    -0.0185 C.ar    
   8 C8             1.8107    -2.8025     0.9604 C.ar    
   9 C9             1.7667    -4.1866     0.9517 C.ar    
  10 C10            1.0457    -4.8508    -0.0309 C.ar    
  11 C11            0.3687    -4.1284    -1.0058 C.ar    
  12 C12            0.4059    -2.7489    -0.9964 C.ar    
  13 C13            3.7799     1.8313    -0.0236 C.2     
  14 N14            4.5050     2.1821    -1.1276 N.pl3   
  15 N15            5.7095     2.7439    -0.6862 N.2     
  16 C16            5.7220     2.7378     0.6229 C.2     
  17 C17            4.5282     2.1793     1.0796 C.2     
  18 C18            4.1139     2.0099    -2.4615 C.ar    
  19 C19            3.3658     0.8996    -2.8294 C.ar    
  20 C20            2.9813     0.7329    -4.1456 C.ar    
  21 C21            3.3405     1.6702    -5.0963 C.ar    
  22 C22            4.0860     2.7771    -4.7332 C.ar    
  23 C23            4.4687     2.9525    -3.4180 C.ar    
  24 O24            1.2860     3.2511     0.0065 O.2     
  25 N25            1.0010    -6.2517    -0.0401 N.pl3   
  26 N26            1.6325    -7.1027     0.8761 N.2     
  27 C27            1.3593    -8.3384     0.5423 C.2     
  28 C28            0.5459    -8.3150    -0.5959 C.2     
  29 C29            0.3358    -7.0209    -0.9313 C.2     
  30 C30            4.1323     1.9831     2.5204 C.3     
  31 O31            2.5164    -2.1500     1.9213 O.3     
  32 C32            3.1887    -2.9550     2.8919 C.3     
  33 C33            4.4759     3.7961    -5.7727 C.3     
  34 F34            3.9725     3.4072    -7.0188 F       
  35 F35            3.9465     5.0434    -5.4246 F       
  36 F36            5.8705     3.8838    -5.8399 F       
  37 H37           -0.9487     1.8976     0.0169 H       
  38 H38           -0.9298    -0.5499     0.0080 H       
  39 H39            2.2933    -4.7488     1.7086 H       
  40 H40           -0.1914    -4.6474    -1.7696 H       
  41 H41           -0.1215    -2.1897    -1.7550 H       
  42 H42            6.5227     3.1076     1.2463 H       
  43 H43            3.0852     0.1668    -2.0872 H       
  44 H44            2.3997    -0.1308    -4.4324 H       
  45 H45            3.0386     1.5377    -6.1247 H       
  46 H46            5.0505     3.8172    -3.1349 H       
  47 H47            1.7026    -9.2237     1.0568 H       
  48 H48            0.1522    -9.1774    -1.1133 H       
  49 H49           -0.2522    -6.6663    -1.7650 H       
  50 H50            3.6043     2.8680     2.8758 H       
  51 H51            3.4804     1.1134     2.6028 H       
  52 H52            5.0258     1.8260     3.1246 H       
  53 H53            3.7121    -2.3109     3.5985 H       
  54 H54            2.4598    -3.5640     3.4265 H       
  55 H55            3.9069    -3.6041     2.3910 H       
@<TRIPOS>BOND
   1    1    2 2
   2    1    6 1
   3    1   37 1
   4    2    3 1
   5    2   38 1
   6    3    4 1
   7    3    7 1
   8    4    5 2
   9    5    6 1
  10    5   13 1
  11    6   24 2
  12    7    8 ar
  13    7   12 ar
  14    8    9 ar
  15    8   31 1
  16    9   10 ar
  17    9   39 1
  18   10   11 ar
  19   10   25 1
  20   11   12 ar
  21   11   40 1
  22   12   41 1
  23   13   14 1
  24   13   17 2
  25   14   15 1
  26   14   18 1
  27   15   16 2
  28   16   17 1
  29   16   42 1
  30   17   30 1
  31   18   19 ar
  32   18   23 ar
  33   19   20 ar
  34   19   43 1
  35   20   21 ar
  36   20   44 1
  37   21   22 ar
  38   21   45 1
  39   22   23 ar
  40   22   33 1
  41   23   46 1
  42   25   26 1
  43   25   29 1
  44   26   27 2
  45   27   28 1
  46   27   47 1
  47   28   29 2
  48   28   48 1
  49   29   49 1
  50   30   50 1
  51   30   51 1
  52   30   52 1
  53   31   32 1
  54   32   53 1
  55   32   54 1
  56   32   55 1
  57   33   34 1
  58   33   35 1
  59   33   36 1

#	End of record

