#	Name: ASD02198513
#	Creating user name:	WinNT
#	Creation time:	15. 06. 2019 20:19

#	Modifying user name:	WinNT
#	Modification time:	15. 06. 2019 20:19

#	Program:	/corina/corina34_cracker 3.40 0067  02.08.2006

@<TRIPOS>MOLECULE
ASD02198513
  44   47    0    0    0
SMALL
NO_CHARGES


@<TRIPOS>ATOM
   1 C1            -0.1048     0.9990     0.1520 C.2     
   2 C2            -0.3341    -0.3362     0.2229 C.2     
   3 N3            -1.5954    -0.8242     0.2182 N.pl3   
   4 N4            -2.6375    -0.0811     0.1487 N.2     
   5 C5            -2.5576     1.2299     0.0757 C.2     
   6 C6            -1.2268     1.8593     0.0797 C.2     
   7 C7            -1.7715    -2.2099     0.2925 C.ar    
   8 C8            -0.8509    -4.4242     0.2851 C.ar    
   9 C9            -2.1200    -4.9509     0.4395 C.ar    
  10 C10           -3.2163    -4.1109     0.5149 C.ar    
  11 C11           -3.0460    -2.7427     0.4419 C.ar    
  12 C12           -3.7800     2.0550    -0.0031 C.2     
  13 N13           -4.9096     1.7668    -0.7163 N.pl3   
  14 N14           -5.8207     2.8108    -0.5126 N.2     
  15 C15           -5.2766     3.6946     0.2855 C.2     
  16 C16           -3.9985     3.2573     0.6332 C.2     
  17 C17           -5.1185     0.6312    -1.5092 C.ar    
  18 C18           -4.1072     0.1670    -2.3399 C.ar    
  19 O19           -1.0960     3.0724     0.0139 O.2     
  20 C20           -6.3354    -0.0360    -1.4620 C.ar    
  21 C21           -6.5383    -1.1555    -2.2451 C.ar    
  22 C22           -5.5312    -1.6119    -3.0755 C.ar    
  23 C23           -4.3163    -0.9530    -3.1205 C.ar    
  24 C24           -0.6733    -3.0565     0.2114 C.ar    
  25 C25            1.2983     1.5489     0.1563 C.3     
  26 C26            0.3406    -5.3433     0.2035 C.3     
  27 F27           -0.0868    -6.6713     0.3070 F       
  28 F28            0.9904    -5.1567    -1.0214 F       
  29 F29            1.2245    -5.0550     1.2489 F       
  30 H30            0.5011    -1.0182     0.2836 H       
  31 H31           -2.2556    -6.0206     0.5011 H       
  32 H32           -4.2062    -4.5256     0.6355 H       
  33 H33           -3.9024    -2.0874     0.5012 H       
  34 H34           -5.7419     4.6093     0.6220 H       
  35 H35           -3.3032     3.7715     1.2800 H       
  36 H36           -3.1582     0.6814    -2.3757 H       
  37 H37           -7.1223     0.3198    -0.8134 H       
  38 H38           -7.4844    -1.6751    -2.2086 H       
  39 H39           -5.6922    -2.4877    -3.6866 H       
  40 H40           -3.5318    -1.3117    -3.7703 H       
  41 H41            0.3182    -2.6458     0.0904 H       
  42 H42            2.0106     0.7264     0.2218 H       
  43 H43            1.4723     2.1078    -0.7632 H       
  44 H44            1.4268     2.2100     1.0133 H       
@<TRIPOS>BOND
   1    1    2 2
   2    1   25 1
   3    1    6 1
   4    2    3 1
   5    2   30 1
   6    3    4 1
   7    3    7 1
   8    4    5 2
   9    5    6 1
  10    5   12 1
  11    6   19 2
  12    7   24 ar
  13    7   11 ar
  14    8    9 ar
  15    8   26 1
  16    8   24 ar
  17    9   10 ar
  18    9   31 1
  19   10   11 ar
  20   10   32 1
  21   11   33 1
  22   12   13 1
  23   12   16 2
  24   13   14 1
  25   13   17 1
  26   14   15 2
  27   15   16 1
  28   15   34 1
  29   16   35 1
  30   17   20 ar
  31   17   18 ar
  32   18   23 ar
  33   18   36 1
  34   20   21 ar
  35   20   37 1
  36   21   22 ar
  37   21   38 1
  38   22   23 ar
  39   22   39 1
  40   23   40 1
  41   24   41 1
  42   25   42 1
  43   25   43 1
  44   25   44 1
  45   26   27 1
  46   26   28 1
  47   26   29 1

#	End of record

