#	Name: ASD05430131
#	Creating user name:	WinNT
#	Creation time:	15. 06. 2019 20:59

#	Modifying user name:	WinNT
#	Modification time:	15. 06. 2019 20:59

#	Program:	/corina/corina34_cracker 3.40 0067  02.08.2006

@<TRIPOS>MOLECULE
ASD05430131
  66   71    0    0    0
SMALL
NO_CHARGES


@<TRIPOS>ATOM
   1 C1             0.1645     1.1930    -0.9991 C.ar    
   2 C2             0.0192    -0.0130    -0.3143 C.ar    
   3 C3             1.0606    -0.5043     0.4624 C.ar    
   4 C4             2.2421     0.1978     0.5603 C.ar    
   5 C5             2.3950     1.4081    -0.1237 C.ar    
   6 C6             1.3469     1.9025    -0.9059 C.ar    
   7 C7             4.8868    -0.0006    -0.0917 C.3     
   8 C8             4.8270     1.5012     0.0670 C.2     
   9 C9             3.6566     2.1597    -0.0203 C.2     
  10 C10            6.3039    -0.4370    -0.4638 C.3     
  11 C11            7.0936     0.6203    -1.2402 C.3     
  12 N12            7.1947     1.8303    -0.4252 N.pl3   
  13 C13            6.0855     2.2242     0.3205 C.2     
  14 C14            8.2818     3.7984    -1.3408 C.ar    
  15 C15            9.3159     4.7069    -1.4691 C.ar    
  16 C16            9.2029     5.7630    -2.3533 C.ar    
  17 C17            8.0533     5.9109    -3.1108 C.ar    
  18 C18            7.0183     5.0004    -2.9813 C.ar    
  19 C19            7.1336     3.9451    -2.0965 C.ar    
  20 N20           -1.1807    -0.7308    -0.4097 N.pl3   
  21 C21           -1.3121    -2.0630    -0.7053 C.2     
  22 C22           -2.6305    -2.3371    -0.6930 C.2     
  23 N23           -3.2904    -1.2072    -0.3985 N.2     
  24 C24           -2.4328    -0.2393    -0.2208 C.2     
  25 C25           -3.2563    -3.6809    -0.9641 C.3     
  26 N26            6.1772     3.1677     1.1993 N.2     
  27 C27           -0.6369     2.9095    -2.4364 C.3     
  28 O28           -0.8549     1.6682    -1.7629 O.3     
  29 C29            8.4089     2.6437    -0.3808 C.3     
  30 C30            8.5819     3.1753     1.0462 C.3     
  31 O31            7.3911     3.8297     1.4718 O.3     
  32 C32            9.6177     1.7866    -0.7616 C.3     
  33 O33           10.8015     2.5858    -0.7166 O.3     
  34 F34            7.9415     6.9432    -3.9751 F       
  35 C35            7.0737    -1.0026     0.7053 C.2     
  36 N36            7.0892    -2.2005     0.0823 N.am    
  37 C37            6.3495    -1.8186    -1.1262 C.3     
  38 O38            7.4972    -0.5672     1.7550 O.2     
  39 H39            0.9439    -1.4388     0.9911 H       
  40 H40            3.0499    -0.1863     1.1656 H       
  41 H41            1.4610     2.8365    -1.4360 H       
  42 H42            4.5977    -0.4746     0.8462 H       
  43 H43            4.1964    -0.3084    -0.8770 H       
  44 H44            3.6429     3.2396    -0.0145 H       
  45 H45            8.0925     0.2425    -1.4582 H       
  46 H46            6.5771     0.8501    -2.1722 H       
  47 H47           10.2124     4.5915    -0.8779 H       
  48 H48           10.0107     6.4728    -2.4532 H       
  49 H49            6.1211     5.1149    -3.5717 H       
  50 H50            6.3264     3.2348    -1.9954 H       
  51 H51           -0.5118    -2.7591    -0.9090 H       
  52 H52           -2.6781     0.7828     0.0272 H       
  53 H53           -3.3504    -4.2332    -0.0291 H       
  54 H54           -4.2437    -3.5399    -1.4037 H       
  55 H55           -2.6275    -4.2417    -1.6556 H       
  56 H56           -1.5261     3.1734    -3.0088 H       
  57 H57           -0.4321     3.6896    -1.7032 H       
  58 H58            0.2139     2.8125    -3.1109 H       
  59 H59            8.7976     2.3443     1.7178 H       
  60 H60            9.4113     3.8821     1.0706 H       
  61 H61            9.7116     0.9584    -0.0592 H       
  62 H62            9.4821     1.3945    -1.7695 H       
  63 H63           11.6089     2.1062    -0.9473 H       
  64 H64            7.4715    -3.0507     0.3505 H       
  65 H65            5.3757    -2.2987    -1.2227 H       
  66 H66            6.9414    -1.8548    -2.0408 H       
@<TRIPOS>BOND
   1    1    2 ar
   2    1    6 ar
   3    1   28 1
   4    2    3 ar
   5    2   20 1
   6    3    4 ar
   7    3   39 1
   8    4    5 ar
   9    4   40 1
  10    5    6 ar
  11    5    9 1
  12    6   41 1
  13    7    8 1
  14    7   10 1
  15    7   42 1
  16    7   43 1
  17    8    9 2
  18    8   13 1
  19    9   44 1
  20   10   11 1
  21   10   35 1
  22   10   37 1
  23   11   12 1
  24   11   45 1
  25   11   46 1
  26   12   13 1
  27   12   29 1
  28   13   26 2
  29   14   15 ar
  30   14   19 ar
  31   14   29 1
  32   15   16 ar
  33   15   47 1
  34   16   17 ar
  35   16   48 1
  36   17   18 ar
  37   17   34 1
  38   18   19 ar
  39   18   49 1
  40   19   50 1
  41   20   21 1
  42   20   24 1
  43   21   22 2
  44   21   51 1
  45   22   23 1
  46   22   25 1
  47   23   24 2
  48   24   52 1
  49   25   53 1
  50   25   54 1
  51   25   55 1
  52   26   31 1
  53   27   28 1
  54   27   56 1
  55   27   57 1
  56   27   58 1
  57   29   30 1
  58   29   32 1
  59   30   31 1
  60   30   59 1
  61   30   60 1
  62   32   33 1
  63   32   61 1
  64   32   62 1
  65   33   63 1
  66   35   36 am
  67   35   38 2
  68   36   37 1
  69   36   64 1
  70   37   65 1
  71   37   66 1

#	End of record

