#	Name: ASD01122036
#	Creating user name:	WinNT
#	Creation time:	15. 06. 2019 18:59

#	Modifying user name:	WinNT
#	Modification time:	15. 06. 2019 18:59

#	Program:	/corina/corina34_cracker 3.40 0067  02.08.2006

@<TRIPOS>MOLECULE
ASD01122036
  43   44    0    0    0
SMALL
NO_CHARGES


@<TRIPOS>ATOM
   1 N1            -0.0174     1.3053    -0.0512 N.ar    
   2 C2             0.0026    -0.0145    -0.0545 C.ar    
   3 N3             1.1248    -0.7046    -0.0544 N.ar    
   4 C4             2.2995    -0.0872    -0.0513 C.ar    
   5 C5             2.3338     1.3182    -0.0481 C.ar    
   6 C6             1.1090     2.0108    -0.0479 C.ar    
   7 N7             3.6144    -0.5037    -0.0507 N.am    
   8 C8             4.3998     0.6314    -0.0473 C.2     
   9 N9             3.6327     1.6947    -0.0458 N.2     
  10 N10            1.0780     3.3941    -0.0453 N.pl3   
  11 P11            8.6322     2.6830    -1.6270 P.3     
  12 O12            8.2029     4.1883    -1.5616 O.co2   
  13 O13            8.0155     2.0191    -2.9050 O.co2   
  14 O14           10.1947     2.5879    -1.6914 O.co2   
  15 O15            4.1481    -2.3825    -1.0948 O.2     
  16 C16            4.0504    -1.7791    -0.0526 C.2     
  17 C17            4.4159    -2.4524     1.2451 C.3     
  18 O18            5.1688    -3.6359     0.9721 O.3     
  19 C19            3.1403    -2.8232     2.0042 C.3     
  20 O20            2.3361    -1.6556     2.1833 O.3     
  21 C21            3.5105    -3.4021     3.3713 C.3     
  22 O22            4.3147    -4.5697     3.1922 O.3     
  23 C23            2.2349    -3.7729     4.1304 C.3     
  24 O24            2.5742    -4.2043     5.4498 O.3     
  25 C25            5.8707     0.6459    -0.0455 C.2     
  26 C26            6.5244     1.7998    -0.1428 C.2     
  27 C27            8.0313     1.8146    -0.1410 C.3     
  28 H28           -0.9361    -0.5486    -0.0570 H       
  29 H29            1.9069     3.8978    -0.0436 H       
  30 H30            0.2273     3.8601    -0.0452 H       
  31 H31            5.0147    -1.7725     1.8511 H       
  32 H32            4.6967    -4.2874     0.4357 H       
  33 H33            2.5813    -3.5656     1.4346 H       
  34 H34            2.7963    -0.9237     2.6164 H       
  35 H35            4.0695    -2.6597     3.9409 H       
  36 H36            3.8797    -5.2740     2.6924 H       
  37 H37            1.5812    -2.9027     4.1895 H       
  38 H38            1.7210    -4.5784     3.6058 H       
  39 H39            1.8122    -4.4558     5.9895 H       
  40 H40            6.4198    -0.2807     0.0347 H       
  41 H41            5.9754     2.7263    -0.2230 H       
  42 H42            8.4048     0.7905    -0.1427 H       
  43 H43            8.3886     2.3301     0.7505 H       
@<TRIPOS>BOND
   1    1    2 ar
   2    1    6 ar
   3    2    3 ar
   4    2   28 1
   5    3    4 ar
   6    4    5 ar
   7    4    7 1
   8    5    6 ar
   9    5    9 1
  10    6   10 1
  11    7    8 1
  12    7   16 am
  13    8    9 2
  14    8   25 1
  15   10   29 1
  16   10   30 1
  17   11   12 ar
  18   11   13 ar
  19   11   14 ar
  20   11   27 1
  21   15   16 2
  22   16   17 1
  23   17   18 1
  24   17   19 1
  25   17   31 1
  26   18   32 1
  27   19   20 1
  28   19   21 1
  29   19   33 1
  30   20   34 1
  31   21   22 1
  32   21   23 1
  33   21   35 1
  34   22   36 1
  35   23   24 1
  36   23   37 1
  37   23   38 1
  38   24   39 1
  39   25   26 2
  40   25   40 1
  41   26   27 1
  42   26   41 1
  43   27   42 1
  44   27   43 1

#	End of record

