#	Name: ASD04590397
#	Creating user name:	WinNT
#	Creation time:	15. 06. 2019 20:50

#	Modifying user name:	WinNT
#	Modification time:	15. 06. 2019 20:50

#	Program:	/corina/corina34_cracker 3.40 0067  02.08.2006

@<TRIPOS>MOLECULE
ASD04590397
  63   67    0    0    0
SMALL
NO_CHARGES


@<TRIPOS>ATOM
   1 C1            -0.0167     1.3832     0.0096 C.ar    
   2 C2             0.0021    -0.0041     0.0020 C.ar    
   3 C3             2.4020     0.0223    -0.0207 C.ar    
   4 C4             2.3769     1.4283    -0.0129 C.ar    
   5 C5             1.1624     2.0986     0.0022 C.ar    
   6 N6             3.7040    -0.3552    -0.0352 N.2     
   7 C7             4.4709     0.7083    -0.0368 C.2     
   8 N8             3.6969     1.8375    -0.0233 N.pl3   
   9 C9             5.9482     0.6906    -0.0514 C.2     
  10 C10            6.7655    -0.4630    -0.0664 C.2     
  11 C11            8.0575    -0.0542    -0.0774 C.2     
  12 N12            8.0646     1.3049    -0.0699 N.pl3   
  13 N13            6.7361     1.7481    -0.0586 N.2     
  14 N14            6.3181    -1.7953    -0.0688 N.am    
  15 C15            7.2100    -2.8056    -0.0838 C.2     
  16 O16            8.4011    -2.5646    -0.0952 O.2     
  17 O17            6.7813    -4.0824    -0.0861 O.3     
  18 C18            1.1969    -0.6870    -0.0130 C.ar    
  19 C19            8.2346    -5.5580     1.0951 C.ar    
  20 C20            7.7334    -5.0535    -0.1015 C.ar    
  21 C21            8.2063    -5.5429    -1.3082 C.ar    
  22 C22            9.1740    -6.5305    -1.3221 C.ar    
  23 C23            9.6713    -7.0319    -0.1339 C.ar    
  24 C24            9.2079    -6.5438     1.0739 C.ar    
  25 C25           -1.2962    -0.7693     0.0108 C.3     
  26 N26           -1.7317    -1.0105    -1.3713 N.3     
  27 C27           -2.8603    -1.9518    -1.4113 C.3     
  28 C28           -3.3197    -2.1280    -2.8611 C.3     
  29 O29           -2.2160    -2.5719    -3.6550 O.3     
  30 C30           -1.0994    -1.6784    -3.6393 C.3     
  31 C31           -0.6175    -1.4976    -2.1974 C.3     
  32 C32            7.6657    -4.9994    -2.6056 C.3     
  33 O33            7.7736    -5.0809     2.2820 O.3     
  34 C34            6.6443    -5.7444     2.8533 C.3     
  35 C35            9.7524    -7.0928     2.3674 C.3     
  36 F36           10.7066    -8.0778     2.0909 F       
  37 F37           10.3475    -6.0593     3.0989 F       
  38 F38            8.7087    -7.6510     3.1132 F       
  39 H39           -0.9614     1.9066     0.0169 H       
  40 H40            1.1403     3.1784     0.0079 H       
  41 H41            4.0156     2.7537    -0.0218 H       
  42 H42            8.9271    -0.6946    -0.0897 H       
  43 H43            8.8530     1.8700    -0.0749 H       
  44 H44            5.3674    -1.9877    -0.0597 H       
  45 H45            1.2037    -1.7669    -0.0185 H       
  46 H46            9.5418    -6.9112    -2.2634 H       
  47 H47           10.4269    -7.8034    -0.1489 H       
  48 H48           -1.1522    -1.7232     0.5181 H       
  49 H49           -2.0559    -0.1898     0.5353 H       
  50 H50           -2.5453    -2.9149    -1.0097 H       
  51 H51           -3.6831    -1.5591    -0.8140 H       
  52 H52           -4.1186    -2.8683    -2.9023 H       
  53 H53           -3.6848    -1.1757    -3.2455 H       
  54 H54           -0.2926    -2.0935    -4.2433 H       
  55 H55           -1.4000    -0.7130    -4.0463 H       
  56 H56            0.1968    -0.7734    -2.1739 H       
  57 H57           -0.2667    -2.4535    -1.8083 H       
  58 H58            8.2691    -4.1489    -2.9228 H       
  59 H59            7.7037    -5.7766    -3.3690 H       
  60 H60            6.6334    -4.6797    -2.4636 H       
  61 H61            5.8008    -5.6834     2.1657 H       
  62 H62            6.8908    -6.7907     3.0341 H       
  63 H63            6.3800    -5.2653     3.7960 H       
@<TRIPOS>BOND
   1    1    2 ar
   2    1    5 ar
   3    1   39 1
   4    2   18 ar
   5    2   25 1
   6    3    4 ar
   7    3    6 1
   8    3   18 ar
   9    4    5 ar
  10    4    8 1
  11    5   40 1
  12    6    7 2
  13    7    8 1
  14    7    9 1
  15    8   41 1
  16    9   10 1
  17    9   13 2
  18   10   11 2
  19   10   14 1
  20   11   12 1
  21   11   42 1
  22   12   13 1
  23   12   43 1
  24   14   15 am
  25   14   44 1
  26   15   16 2
  27   15   17 1
  28   17   20 1
  29   18   45 1
  30   19   33 1
  31   19   20 ar
  32   19   24 ar
  33   20   21 ar
  34   21   22 ar
  35   21   32 1
  36   22   23 ar
  37   22   46 1
  38   23   24 ar
  39   23   47 1
  40   24   35 1
  41   25   26 1
  42   25   48 1
  43   25   49 1
  44   26   27 1
  45   26   31 1
  46   27   28 1
  47   27   50 1
  48   27   51 1
  49   28   29 1
  50   28   52 1
  51   28   53 1
  52   29   30 1
  53   30   31 1
  54   30   54 1
  55   30   55 1
  56   31   56 1
  57   31   57 1
  58   32   58 1
  59   32   59 1
  60   32   60 1
  61   33   34 1
  62   34   61 1
  63   34   62 1
  64   34   63 1
  65   35   36 1
  66   35   37 1
  67   35   38 1

#	End of record

