#	Name: ASD00100105
#	Creating user name:	WinNT
#	Creation time:	15. 06. 2019 18:30

#	Modifying user name:	WinNT
#	Modification time:	15. 06. 2019 18:30

#	Program:	/corina/corina34_cracker 3.40 0067  02.08.2006

@<TRIPOS>MOLECULE
ASD00100105
  38   40    0    0    0
SMALL
NO_CHARGES


@<TRIPOS>ATOM
   1 N1            -0.1488     1.5797     0.3562 N.pl3   
   2 N2             0.7932    -1.8230    -0.1069 N.pl3   
   3 N3             1.0993    -0.4640     0.0407 N.2     
   4 C4            -0.0259     0.1970     0.1820 C.2     
   5 C5            -1.0853    -0.7239     0.1284 C.2     
   6 C6            -0.5568    -1.9562    -0.0494 C.2     
   7 C7            -2.5515    -0.3968     0.2484 C.3     
   8 C8            -3.0915    -0.0070    -1.1035 C.ar    
   9 C9            -3.5205    -0.9858    -1.9884 C.ar    
  10 C10           -4.0170    -0.6237    -3.2320 C.ar    
  11 C11           -4.0831     0.7100    -3.5866 C.ar    
  12 C12           -3.6545     1.6833    -2.7033 C.ar    
  13 C13           -3.1649     1.3253    -1.4605 C.ar    
  14 O14           -3.4541    -2.2970    -1.6375 O.3     
  15 C15           -3.9133    -3.2498    -2.5984 C.3     
  16 C16            1.7172    -2.8614    -0.2881 C.ar    
  17 C17            3.0766    -2.5822    -0.3337 C.ar    
  18 C18            3.9854    -3.6066    -0.5118 C.ar    
  19 C19            3.5417    -4.9117    -0.6452 C.ar    
  20 C20            2.1863    -5.1922    -0.6004 C.ar    
  21 C21            1.2747    -4.1712    -0.4163 C.ar    
  22 F22            4.4323    -5.9125    -0.8197 F       
  23 H23            0.6453     2.1306     0.4394 H       
  24 H24           -1.0280     1.9881     0.3900 H       
  25 H25           -1.1095    -2.8804    -0.1313 H       
  26 H26           -3.0897    -1.2703     0.6165 H       
  27 H27           -2.6832     0.4313     0.9448 H       
  28 H28           -4.3512    -1.3838    -3.9227 H       
  29 H29           -4.4695     0.9924    -4.5547 H       
  30 H30           -3.7063     2.7253    -2.9826 H       
  31 H31           -2.8352     2.0878    -0.7704 H       
  32 H32           -4.9624    -3.0602    -2.8254 H       
  33 H33           -3.3223    -3.1603    -3.5099 H       
  34 H34           -3.8054    -4.2558    -2.1928 H       
  35 H35            3.4229    -1.5644    -0.2304 H       
  36 H36            5.0428    -3.3899    -0.5474 H       
  37 H37            1.8422    -6.2105    -0.7053 H       
  38 H38            0.2180    -4.3909    -0.3769 H       
@<TRIPOS>BOND
   1    1    4 1
   2    1   23 1
   3    1   24 1
   4    2    3 1
   5    2    6 1
   6    2   16 1
   7    3    4 2
   8    4    5 1
   9    5    6 2
  10    5    7 1
  11    6   25 1
  12    7    8 1
  13    7   26 1
  14    7   27 1
  15    8    9 ar
  16    8   13 ar
  17    9   10 ar
  18    9   14 1
  19   10   11 ar
  20   10   28 1
  21   11   12 ar
  22   11   29 1
  23   12   13 ar
  24   12   30 1
  25   13   31 1
  26   14   15 1
  27   15   32 1
  28   15   33 1
  29   15   34 1
  30   16   17 ar
  31   16   21 ar
  32   17   18 ar
  33   17   35 1
  34   18   19 ar
  35   18   36 1
  36   19   20 ar
  37   19   22 1
  38   20   21 ar
  39   20   37 1
  40   21   38 1

#	End of record

