#	Name: ASD01890433
#	Creating user name:	WinNT
#	Creation time:	15. 06. 2019 19:51

#	Modifying user name:	WinNT
#	Modification time:	15. 06. 2019 19:51

#	Program:	/corina/corina34_cracker 3.40 0067  02.08.2006

@<TRIPOS>MOLECULE
ASD01890433
  55   58    0    0    0
SMALL
NO_CHARGES


@<TRIPOS>ATOM
   1 C1             0.0437     1.6083     0.2258 C.2     
   2 C2             0.0612     0.1083     0.0823 C.3     
   3 C3             1.4858    -0.3683    -0.0376 C.2     
   4 O4             0.9030     2.1638     0.8684 O.2     
   5 O5            -0.9234     2.3278    -0.3649 O.3     
   6 O6             1.9357    -1.1388     0.7771 O.2     
   7 O7             2.2550     0.0633    -1.0495 O.3     
   8 C8            -0.5881    -0.5293     1.3123 C.3     
   9 C9            -1.9851     0.0607     1.5151 C.3     
  10 C10           -2.5663    -0.4566     2.8057 C.2     
  11 C11           -0.6966    -2.0185     1.1079 C.ar    
  12 C12           -0.0648    -2.8838     1.9813 C.ar    
  13 C13           -0.1643    -4.2498     1.7939 C.ar    
  14 C14           -0.8959    -4.7504     0.7332 C.ar    
  15 C15           -1.5284    -3.8850    -0.1398 C.ar    
  16 C16           -1.4325    -2.5191     0.0502 C.ar    
  17 O17           -1.9263    -1.2219     3.4953 O.2     
  18 N18           -6.4819    -0.4187     5.9310 N.pl3   
  19 C19           -5.7131    -0.1126     4.8211 C.ar    
  20 C20           -4.4455    -0.5142     4.4244 C.ar    
  21 C21           -3.9090    -0.0337     3.2287 C.ar    
  22 C22           -4.6473     0.8518     2.4298 C.ar    
  23 C23           -5.8930     1.2489     2.8169 C.ar    
  24 C24           -6.4401     0.7753     4.0104 C.ar    
  25 C25           -7.7250     1.0057     4.6932 C.ar    
  26 C26           -8.8463     1.7762     4.3895 C.ar    
  27 C27           -9.9223     1.7866     5.2496 C.ar    
  28 C28           -9.8928     1.0345     6.4147 C.ar    
  29 C29           -8.7909     0.2688     6.7277 C.ar    
  30 C30           -7.6936     0.2438     5.8714 C.ar    
  31 C31           -0.8775     3.7678    -0.1840 C.3     
  32 C32            3.6169    -0.4373    -1.1022 C.3     
  33 H33           -0.4940    -0.1778    -0.8110 H       
  34 H34            0.0231    -0.3269     2.1918 H       
  35 H35           -1.9177     1.1478     1.5570 H       
  36 H36           -2.6272    -0.2318     0.6844 H       
  37 H37            0.5067    -2.4927     2.8100 H       
  38 H38            0.3298    -4.9259     2.4759 H       
  39 H39           -0.9731    -5.8176     0.5863 H       
  40 H40           -2.0997    -4.2761    -0.9687 H       
  41 H41           -1.9297    -1.8431    -0.6296 H       
  42 H42           -6.2108    -1.0158     6.6458 H       
  43 H43           -3.8761    -1.1960     5.0387 H       
  44 H44           -4.2277     1.2206     1.5056 H       
  45 H45           -6.4574     1.9314     2.1988 H       
  46 H46           -8.8713     2.3632     3.4832 H       
  47 H47          -10.7920     2.3829     5.0161 H       
  48 H48          -10.7412     1.0496     7.0828 H       
  49 H49           -8.7786    -0.3123     7.6379 H       
  50 H50           -1.7136     4.2270    -0.7115 H       
  51 H51           -0.9449     4.0029     0.8782 H       
  52 H52            0.0603     4.1544    -0.5829 H       
  53 H53            3.6016    -1.5238    -1.1887 H       
  54 H54            4.1275    -0.0112    -1.9659 H       
  55 H55            4.1441    -0.1528    -0.1916 H       
@<TRIPOS>BOND
   1    1    2 1
   2    1    4 2
   3    1    5 1
   4    2    3 1
   5    2    8 1
   6    2   33 1
   7    3    6 2
   8    3    7 1
   9    5   31 1
  10    7   32 1
  11    8    9 1
  12    8   11 1
  13    8   34 1
  14    9   10 1
  15    9   35 1
  16    9   36 1
  17   10   17 2
  18   10   21 1
  19   11   12 ar
  20   11   16 ar
  21   12   13 ar
  22   12   37 1
  23   13   14 ar
  24   13   38 1
  25   14   15 ar
  26   14   39 1
  27   15   16 ar
  28   15   40 1
  29   16   41 1
  30   18   19 1
  31   18   30 1
  32   18   42 1
  33   19   20 ar
  34   19   24 ar
  35   20   21 ar
  36   20   43 1
  37   21   22 ar
  38   22   23 ar
  39   22   44 1
  40   23   24 ar
  41   23   45 1
  42   24   25 1
  43   25   26 ar
  44   25   30 ar
  45   26   27 ar
  46   26   46 1
  47   27   28 ar
  48   27   47 1
  49   28   29 ar
  50   28   48 1
  51   29   30 ar
  52   29   49 1
  53   31   50 1
  54   31   51 1
  55   31   52 1
  56   32   53 1
  57   32   54 1
  58   32   55 1

#	End of record

