#	Name: ASD07930101
#	Creating user name:	WinNT
#	Creation time:	15. 06. 2019 21:11

#	Modifying user name:	WinNT
#	Modification time:	15. 06. 2019 21:11

#	Program:	/corina/corina34_cracker 3.40 0067  02.08.2006

@<TRIPOS>MOLECULE
ASD07930101
  47   50    0    0    0
SMALL
NO_CHARGES


@<TRIPOS>ATOM
   1 S1            -0.0476     1.7109    -0.0272 S.3     
   2 C2            -0.0063    -0.0496    -0.0326 C.2     
   3 N3             1.0051    -0.7143    -0.4389 N.2     
   4 C4             2.2693    -0.2700    -0.9751 C.3     
   5 C5             2.3891     1.2500    -1.1537 C.3     
   6 C6             1.7357     2.0308    -0.0307 C.3     
   7 O7             2.0065     0.3252    -3.2923 O.3     
   8 C8             2.3689    -0.7690    -2.4407 C.3     
   9 C9             1.6654     1.4747    -2.4968 C.3     
  10 N10           -1.1088    -0.7368     0.4199 N.pl3   
  11 C11            2.1693     2.7548    -3.1663 C.3     
  12 C12            3.4093    -0.8133    -0.1529 C.ar    
  13 C13            4.7167    -0.5196    -0.5033 C.ar    
  14 C14            5.7662    -1.0178     0.2501 C.ar    
  15 C15            5.5114    -1.8087     1.3534 C.ar    
  16 C16            4.2012    -2.1042     1.7070 C.ar    
  17 C17            3.1495    -1.5989     0.9526 C.ar    
  18 C18            2.6392    -3.1102     3.2554 C.2     
  19 C19            2.3305    -4.2789     3.8412 C.2     
  20 C20            3.3755    -5.2921     4.0277 C.2     
  21 C21            4.6576    -4.9651     3.8830 C.2     
  22 C22            5.0403    -3.5428     3.5567 C.3     
  23 N23            3.9408    -2.9049     2.8231 N.pl3   
  24 C24            5.7263    -6.0149     4.0460 C.3     
  25 F25            5.1302    -7.2449     4.3443 F       
  26 F26            6.4557    -6.1264     2.8573 F       
  27 F27            6.5853    -5.6482     5.0875 F       
  28 F28            4.9683     0.2537    -1.5820 F       
  29 H29            3.4386     1.5316    -1.2388 H       
  30 H30            1.9132     3.0961    -0.1780 H       
  31 H31            2.1621     1.7204     0.9232 H       
  32 H32            3.3901    -1.0834    -2.6562 H       
  33 H33            1.6829    -1.6018    -2.5957 H       
  34 H34            0.5873     1.5242    -2.3437 H       
  35 H35           -1.8878    -0.2514     0.7333 H       
  36 H36           -1.1070    -1.7068     0.4255 H       
  37 H37            3.2405     2.6714    -3.3498 H       
  38 H38            1.6486     2.8989    -4.1130 H       
  39 H39            1.9778     3.6061    -2.5130 H       
  40 H40            6.7849    -0.7880    -0.0255 H       
  41 H41            6.3304    -2.1973     1.9405 H       
  42 H42            2.1298    -1.8240     1.2280 H       
  43 H43            1.8872    -2.3469     3.1197 H       
  44 H44            1.3209    -4.4712     4.1728 H       
  45 H45            3.1036    -6.3057     4.2826 H       
  46 H46            5.2289    -2.9952     4.4802 H       
  47 H47            5.9392    -3.5397     2.9402 H       
@<TRIPOS>BOND
   1    1    2 1
   2    1    6 1
   3    2    3 2
   4    2   10 1
   5    3    4 1
   6    4    8 1
   7    4   12 1
   8    4    5 1
   9    5    6 1
  10    5    9 1
  11    5   29 1
  12    6   30 1
  13    6   31 1
  14    7    8 1
  15    7    9 1
  16    8   32 1
  17    8   33 1
  18    9   11 1
  19    9   34 1
  20   10   35 1
  21   10   36 1
  22   11   37 1
  23   11   38 1
  24   11   39 1
  25   12   13 ar
  26   12   17 ar
  27   13   14 ar
  28   13   28 1
  29   14   15 ar
  30   14   40 1
  31   15   16 ar
  32   15   41 1
  33   16   17 ar
  34   16   23 1
  35   17   42 1
  36   18   19 2
  37   18   23 1
  38   18   43 1
  39   19   20 1
  40   19   44 1
  41   20   21 2
  42   20   45 1
  43   21   22 1
  44   21   24 1
  45   22   23 1
  46   22   46 1
  47   22   47 1
  48   24   25 1
  49   24   26 1
  50   24   27 1

#	End of record

