#	Name: ASD03110044
#	Creating user name:	WinNT
#	Creation time:	15. 06. 2019 20:33

#	Modifying user name:	WinNT
#	Modification time:	15. 06. 2019 20:33

#	Program:	/corina/corina34_cracker 3.40 0067  02.08.2006

@<TRIPOS>MOLECULE
ASD03110044
  81   85    0    0    0
SMALL
NO_CHARGES


@<TRIPOS>ATOM
   1 O1            -0.0489     0.2622    -0.4329 O.3     
   2 O2             5.5012    10.2512    -2.2521 O.3     
   3 O3             5.8009     8.2076    -3.0378 O.2     
   4 C4             3.5045     5.7926    -0.6156 C.3     
   5 C5             3.8329     4.3701    -1.0343 C.3     
   6 C6             2.6239     3.4620    -1.2695 C.3     
   7 C7             4.7879     6.4870    -0.1378 C.3     
   8 C8             1.7029     3.5622    -0.0605 C.3     
   9 C9             2.4340     5.8594     0.4663 C.3     
  10 C10            5.9177     6.2589    -1.0935 C.2     
  11 C11            1.2149     5.0031     0.0874 C.3     
  12 C12            0.5860     2.5473     0.0101 C.3     
  13 C13            7.1623     7.1269    -1.0506 C.3     
  14 C14            4.7562     4.3856    -2.2505 C.3     
  15 C15            4.5426     7.9614     0.1431 C.3     
  16 C16            3.1375     2.0148    -1.3756 C.3     
  17 C17            6.7399     8.5870    -0.9052 C.3     
  18 C18            5.8458     8.7391     0.3201 C.3     
  19 C19            2.9979     6.5883    -1.8337 C.3     
  20 C20            5.8980     5.3297    -2.0139 C.2     
  21 C21            1.0807     1.1271    -0.2681 C.3     
  22 C22            1.9151     3.8041    -2.5747 C.3     
  23 C23            1.9526     1.0631    -1.5169 C.3     
  24 C24            8.0773     6.7042     0.0928 C.3     
  25 C25            5.1866     5.8370     1.1987 C.3     
  26 C26            7.9630     9.4953    -0.7866 C.3     
  27 C27            9.3111     7.6141     0.1316 C.3     
  28 C28            0.0338     2.5379     1.4579 C.3     
  29 C29           -0.5847     2.8833    -0.9121 C.3     
  30 C30            8.8527     9.0541     0.3742 C.3     
  31 C31            5.9789     9.0014    -2.1445 C.2     
  32 C32            8.5423     5.2598    -0.1085 C.3     
  33 C33           10.2319     7.1724     1.2708 C.3     
  34 H34            4.4050     3.8887    -0.2105 H       
  35 H35            2.3553     3.3734     0.8309 H       
  36 H36            2.7917     5.4939     1.4272 H       
  37 H37            2.1015     6.8946     0.5872 H       
  38 H38            0.7640     5.3756    -0.8198 H       
  39 H39            0.4902     5.0742     0.9023 H       
  40 H40            7.7064     7.0110    -2.0015 H       
  41 H41            5.1659     3.3788    -2.4014 H       
  42 H42            4.2384     4.6783    -3.1584 H       
  43 H43            3.9347     8.4520    -0.6077 H       
  44 H44            3.9807     8.0377     1.0931 H       
  45 H45            3.7824     1.9296    -2.2495 H       
  46 H46            3.7009     1.7716    -0.4763 H       
  47 H47            5.6079     9.7998     0.4565 H       
  48 H48            6.3697     8.3893     1.2084 H       
  49 H49            2.1107     6.1035    -2.2410 H       
  50 H50            2.7482     7.6038    -1.5261 H       
  51 H51            3.7765     6.6207    -2.5959 H       
  52 H52            6.7697     5.2398    -2.6500 H       
  53 H53            1.6610     0.7800     0.5931 H       
  54 H54            2.6528     3.9245    -3.3681 H       
  55 H55            1.2278     2.9997    -2.8367 H       
  56 H56            1.3578     4.7329    -2.4529 H       
  57 H57            1.3689     1.2839    -2.4046 H       
  58 H58            2.3404     0.0392    -1.6206 H       
  59 H59            7.5652     6.7927     1.0493 H       
  60 H60            5.4603     4.7956     1.0289 H       
  61 H61            6.0364     6.3714     1.6234 H       
  62 H62            4.3456     5.8835     1.8905 H       
  63 H63            8.5336     9.4488    -1.7162 H       
  64 H64            7.6344    10.5224    -0.6237 H       
  65 H65            9.8407     7.5508    -0.8162 H       
  66 H66           -0.2644     2.8008    -1.9507 H       
  67 H67           -0.3435     3.5291     1.7093 H       
  68 H68           -0.7751     1.8113     1.5335 H       
  69 H69            0.8316     2.2667     2.1493 H       
  70 H70           -1.4035     2.1876    -0.7280 H       
  71 H71           -0.9216     3.9011    -0.7155 H       
  72 H72            9.7244     9.7075     0.4347 H       
  73 H73            8.2946     9.1083     1.3077 H       
  74 H74            9.0873     5.1813    -1.0492 H       
  75 H75            9.1951     4.9701     0.7149 H       
  76 H76            7.6755     4.5993    -0.1346 H       
  77 H77            0.1840    -0.6589    -0.6131 H       
  78 H78           10.5448     6.1414     1.1061 H       
  79 H79           11.1095     7.8183     1.2997 H       
  80 H80            9.6975     7.2430     2.2181 H       
  81 H81            5.0213    10.4695    -3.0628 H       
@<TRIPOS>BOND
   1    1   77 1
   2    1   21 1
   3    2   31 1
   4    2   81 1
   5    3   31 2
   6    4    5 1
   7    4    9 1
   8    4   19 1
   9    4    7 1
  10    5    6 1
  11    5   14 1
  12    5   34 1
  13    6    8 1
  14    6   16 1
  15    6   22 1
  16    7   10 1
  17    7   15 1
  18    7   25 1
  19    8   11 1
  20    8   12 1
  21    8   35 1
  22    9   11 1
  23    9   36 1
  24    9   37 1
  25   10   13 1
  26   10   20 2
  27   11   38 1
  28   11   39 1
  29   12   21 1
  30   12   28 1
  31   12   29 1
  32   13   17 1
  33   13   40 1
  34   13   24 1
  35   14   20 1
  36   14   41 1
  37   14   42 1
  38   15   18 1
  39   15   43 1
  40   15   44 1
  41   16   23 1
  42   16   45 1
  43   16   46 1
  44   17   18 1
  45   17   26 1
  46   17   31 1
  47   18   47 1
  48   18   48 1
  49   19   49 1
  50   19   50 1
  51   19   51 1
  52   20   52 1
  53   21   23 1
  54   21   53 1
  55   22   54 1
  56   22   55 1
  57   22   56 1
  58   23   57 1
  59   23   58 1
  60   24   32 1
  61   24   59 1
  62   24   27 1
  63   25   60 1
  64   25   61 1
  65   25   62 1
  66   26   30 1
  67   26   63 1
  68   26   64 1
  69   27   30 1
  70   27   33 1
  71   27   65 1
  72   28   67 1
  73   28   68 1
  74   28   69 1
  75   29   66 1
  76   29   70 1
  77   29   71 1
  78   30   72 1
  79   30   73 1
  80   32   74 1
  81   32   75 1
  82   32   76 1
  83   33   78 1
  84   33   79 1
  85   33   80 1

#	End of record

