#	Name: ASD00311465
#	Creating user name:	WinNT
#	Creation time:	15. 06. 2019 18:34

#	Modifying user name:	WinNT
#	Modification time:	15. 06. 2019 18:34

#	Program:	/corina/corina34_cracker 3.40 0067  02.08.2006

@<TRIPOS>MOLECULE
ASD00311465
  52   56    0    0    0
SMALL
NO_CHARGES


@<TRIPOS>ATOM
   1 C1            -0.0167     1.3777     0.0096 C.2     
   2 C2             0.0021    -0.0041     0.0020 C.2     
   3 C3             1.2588    -0.6767    -0.0136 C.2     
   4 C4             2.4315     0.0672    -0.0208 C.2     
   5 C5             2.3574     1.4751    -0.0126 C.2     
   6 N6             1.1648     2.0902     0.0022 N.am    
   7 C7            -1.3433    -0.5752     0.0123 C.2     
   8 C8            -2.3228     0.3262     0.0268 C.2     
   9 S9            -1.6792     1.9563     0.0358 S.3     
  10 O10            3.3822     2.1373    -0.0184 O.2     
  11 C11            3.7477    -0.6121    -0.0366 C.ar    
  12 C12            4.5934    -0.4747    -1.1371 C.ar    
  13 C13            5.8182    -1.1100    -1.1459 C.ar    
  14 C14            6.2078    -1.8823    -0.0662 C.ar    
  15 C15            5.3733    -2.0225     1.0283 C.ar    
  16 C16            4.1487    -1.3871     1.0515 C.ar    
  17 C17           -2.0690    -4.7662    -0.0052 C.ar    
  18 C18           -2.7056    -3.9523     0.9316 C.ar    
  19 C19           -2.4706    -2.5954     0.9379 C.ar    
  20 C20           -1.5956    -2.0347     0.0065 C.ar    
  21 C21           -0.9588    -2.8494    -0.9306 C.ar    
  22 C22           -1.1941    -4.2063    -0.9360 C.ar    
  23 C23           -2.3177    -6.2282    -0.0077 C.ar    
  24 C24           -1.6830    -7.0442    -0.9427 C.ar    
  25 C25           -1.9183    -8.4040    -0.9403 C.ar    
  26 C26           -2.7825    -8.9575    -0.0127 C.ar    
  27 C27           -3.4155    -8.1525     0.9172 C.ar    
  28 C28           -3.1827    -6.7923     0.9285 C.ar    
  29 S29           -3.0785   -10.6945    -0.0161 S.o2    
  30 O30           -4.3711   -10.8308     0.5582 O.2     
  31 O31           -2.8274   -11.0901    -1.3576 O.2     
  32 C32           -1.8139   -11.3713     1.0944 C.3     
  33 O33            1.3087    -2.0292    -0.0209 O.3     
  34 H34            1.1326     3.0597     0.0073 H       
  35 H35           -3.3754     0.0847     0.0359 H       
  36 H36            4.2901     0.1275    -1.9808 H       
  37 H37            6.4740    -1.0043    -1.9975 H       
  38 H38            7.1671    -2.3782    -0.0780 H       
  39 H39            5.6827    -2.6270     1.8680 H       
  40 H40            3.5001    -1.4932     1.9085 H       
  41 H41           -3.3833    -4.3862     1.6519 H       
  42 H42           -2.9639    -1.9652     1.6631 H       
  43 H43           -0.2816    -2.4158    -1.6516 H       
  44 H44           -0.7013    -4.8369    -1.6612 H       
  45 H45           -1.0086    -6.6131    -1.6678 H       
  46 H46           -1.4270    -9.0373    -1.6643 H       
  47 H47           -4.0898    -8.5899     1.6386 H       
  48 H48           -3.6738    -6.1653     1.6581 H       
  49 H49           -1.9345   -10.9399     2.0881 H       
  50 H50           -1.9235   -12.4542     1.1527 H       
  51 H51           -0.8238   -11.1265     0.7097 H       
  52 H52            2.2059    -2.3896    -0.0315 H       
@<TRIPOS>BOND
   1    1    2 2
   2    1    6 1
   3    1    9 1
   4    2    3 1
   5    2    7 1
   6    3    4 2
   7    3   33 1
   8    4    5 1
   9    4   11 1
  10    5    6 am
  11    5   10 2
  12    6   34 1
  13    7    8 2
  14    7   20 1
  15    8    9 1
  16    8   35 1
  17   11   12 ar
  18   11   16 ar
  19   12   13 ar
  20   12   36 1
  21   13   14 ar
  22   13   37 1
  23   14   15 ar
  24   14   38 1
  25   15   16 ar
  26   15   39 1
  27   16   40 1
  28   17   18 ar
  29   17   22 ar
  30   17   23 1
  31   18   19 ar
  32   18   41 1
  33   19   20 ar
  34   19   42 1
  35   20   21 ar
  36   21   22 ar
  37   21   43 1
  38   22   44 1
  39   23   24 ar
  40   23   28 ar
  41   24   25 ar
  42   24   45 1
  43   25   26 ar
  44   25   46 1
  45   26   27 ar
  46   26   29 1
  47   27   28 ar
  48   27   47 1
  49   28   48 1
  50   29   30 2
  51   29   31 2
  52   29   32 1
  53   32   49 1
  54   32   50 1
  55   32   51 1
  56   33   52 1

#	End of record

