#	Name: ASD02198146
#	Creating user name:	WinNT
#	Creation time:	15. 06. 2019 20:18

#	Modifying user name:	WinNT
#	Modification time:	15. 06. 2019 20:18

#	Program:	/corina/corina34_cracker 3.40 0067  02.08.2006

@<TRIPOS>MOLECULE
ASD02198146
  56   60    0    0    0
SMALL
NO_CHARGES


@<TRIPOS>ATOM
   1 C1            -0.0156     1.3780    -0.0289 C.2     
   2 C2             0.0076    -0.0009    -0.0143 C.2     
   3 C3            -1.1781    -0.8005     0.0588 C.1     
   4 S4             1.5642     2.0122    -0.1223 S.3     
   5 C5             2.2781     0.4076    -0.1427 C.2     
   6 C6             1.2877    -0.5457    -0.0777 C.2     
   7 C7             3.6581     0.1369    -0.2151 C.2     
   8 C8             4.6260     1.2494    -0.2806 C.2     
   9 O9             4.0537    -1.0170    -0.2238 O.2     
  10 N10            1.5385    -1.9085    -0.0752 N.pl3   
  11 N11           -1.1605     2.1398     0.0194 N.pl3   
  12 N12           -2.1187    -1.4349     0.1167 N.1     
  13 O13            4.3438     2.5656    -0.2796 O.3     
  14 C14           -1.0711     3.5242     0.1315 C.ar    
  15 C15           -1.9816     4.3357    -0.5396 C.ar    
  16 N16            5.3460     3.2384    -0.3417 N.2     
  17 C17            6.4260     2.4989    -0.3927 C.2     
  18 C18            5.9874     1.1481    -0.3485 C.2     
  19 C19            7.8290     2.9770    -0.4754 C.ar    
  20 C20            8.1014     4.3429    -0.5055 C.ar    
  21 C21            9.4077     4.7820    -0.5825 C.ar    
  22 C22           10.4453     3.8686    -0.6301 C.ar    
  23 C23           10.1804     2.5113    -0.6006 C.ar    
  24 C24            8.8782     2.0614    -0.5174 C.ar    
  25 C25           -0.0749     4.0944     0.9191 C.ar    
  26 C26            0.0158     5.4630     1.0324 C.ar    
  27 C27           -1.8956     5.7050    -0.4310 C.ar    
  28 C28           -0.8934     6.2807     0.3552 C.ar    
  29 C29           -0.7987     7.7484     0.4741 C.2     
  30 N30            0.1682     8.3020     1.2325 N.am    
  31 O31           -1.5928     8.4583    -0.1121 O.2     
  32 C32            0.2622     9.7592     1.3506 C.3     
  33 C33           -0.6344    10.2564     2.4636 C.2     
  34 C34            1.6883    10.1732     1.7770 C.3     
  35 C35            1.4073    11.2074     2.8908 C.3     
  36 O36            0.1077    10.8202     3.4273 O.3     
  37 O37           -1.8387    10.1597     2.4811 O.2     
  38 H38            2.4513    -2.2337    -0.1208 H       
  39 H39            0.8014    -2.5372    -0.0278 H       
  40 H40           -2.0299     1.7119    -0.0247 H       
  41 H41           -2.7562     3.8903    -1.1463 H       
  42 H42            6.5887     0.2512    -0.3699 H       
  43 H43            7.2920     5.0570    -0.4690 H       
  44 H44            9.6201     5.8407    -0.6059 H       
  45 H45           11.4660     4.2164    -0.6911 H       
  46 H46           10.9943     1.8023    -0.6380 H       
  47 H47            8.6724     1.0015    -0.4944 H       
  48 H48            0.6273     3.4621     1.4421 H       
  49 H49            0.7885     5.9048     1.6441 H       
  50 H50           -2.6023     6.3340    -0.9519 H       
  51 H51            0.8017     7.7356     1.7002 H       
  52 H52           -0.0061    10.2337     0.4067 H       
  53 H53            2.2392     9.3189     2.1704 H       
  54 H54            2.2238    10.6329     0.9464 H       
  55 H55            2.1716    11.1495     3.6658 H       
  56 H56            1.3625    12.2134     2.4736 H       
@<TRIPOS>BOND
   1    1    2 2
   2    1    4 1
   3    1   11 1
   4    2    3 1
   5    2    6 1
   6    3   12 3
   7    4    5 1
   8    5    6 2
   9    5    7 1
  10    6   10 1
  11    7    8 1
  12    7    9 2
  13    8   13 1
  14    8   18 2
  15   10   38 1
  16   10   39 1
  17   11   14 1
  18   11   40 1
  19   13   16 1
  20   14   15 ar
  21   14   25 ar
  22   15   27 ar
  23   15   41 1
  24   16   17 2
  25   17   18 1
  26   17   19 1
  27   18   42 1
  28   19   20 ar
  29   19   24 ar
  30   20   21 ar
  31   20   43 1
  32   21   22 ar
  33   21   44 1
  34   22   23 ar
  35   22   45 1
  36   23   24 ar
  37   23   46 1
  38   24   47 1
  39   25   26 ar
  40   25   48 1
  41   26   28 ar
  42   26   49 1
  43   27   28 ar
  44   27   50 1
  45   28   29 1
  46   29   30 am
  47   29   31 2
  48   30   32 1
  49   30   51 1
  50   32   33 1
  51   32   34 1
  52   32   52 1
  53   33   37 2
  54   33   36 1
  55   34   35 1
  56   34   53 1
  57   34   54 1
  58   35   36 1
  59   35   55 1
  60   35   56 1

#	End of record

