#	Name: ASD09380019
#	Creating user name:	WinNT
#	Creation time:	15. 06. 2019 21:22

#	Modifying user name:	WinNT
#	Modification time:	15. 06. 2019 21:22

#	Program:	/corina/corina34_cracker 3.40 0067  02.08.2006

@<TRIPOS>MOLECULE
ASD09380019
  58   62    0    0    0
SMALL
NO_CHARGES


@<TRIPOS>ATOM
   1 C1             0.6226     0.1427     1.0783 C.3     
   2 C2            -0.2160     0.2431    -0.1975 C.3     
   3 H3             0.3872    -0.0594    -1.0535 H       
   4 C4            -1.4335    -0.6760    -0.0812 C.3     
   5 H5            -2.0711    -0.5470    -0.9559 H       
   6 C6            -0.9681    -2.1312     0.0004 C.3     
   7 C7            -1.5453    -3.1158    -1.0186 C.3     
   8 C8            -0.0905    -2.6571    -1.1372 C.3     
   9 C9            -2.2099    -0.3264     1.1622 C.ar    
  10 C10           -1.7040    -0.6503     2.4074 C.ar    
  11 C11           -2.4153    -0.3276     3.5469 C.ar    
  12 C12           -3.6354     0.3197     3.4492 C.ar    
  13 C13           -4.3774     0.6643     4.7157 C.3     
  14 C14           -5.8444     0.9560     4.3905 C.3     
  15 C15           -5.8913     1.9272     3.2040 C.3     
  16 O16           -5.3427     1.2691     2.0612 O.3     
  17 C17           -4.1463     0.6416     2.2038 C.ar    
  18 C18           -3.4237     0.3222     1.0589 C.ar    
  19 C19           -7.3192     2.3206     2.9262 C.ar    
  20 C20           -7.6715     3.6584     2.8914 C.ar    
  21 N21           -8.9214     4.0087     2.6489 N.ar    
  22 C22           -9.8426     3.0738     2.4374 C.ar    
  23 C23           -9.4829     1.7262     2.4730 C.ar    
  24 N24           -8.2302     1.3865     2.7113 N.ar    
  25 C25          -11.2476     3.4619     2.1652 C.ar    
  26 C26          -12.1888     2.4906     1.8317 C.ar    
  27 C27          -13.4996     2.8591     1.5790 C.ar    
  28 O28          -14.4203     1.9132     1.2538 O.3     
  29 C29          -13.8744     4.1931     1.6579 C.ar    
  30 C30          -12.9426     5.1593     1.9881 C.ar    
  31 C31          -11.6329     4.8011     2.2479 C.ar    
  32 F32          -10.7256     5.7467     2.5763 F       
  33 C33           -0.6765     1.6657    -0.3852 C.2     
  34 O34            0.2218     2.6622    -0.4252 O.3     
  35 O35           -1.8545     1.9092    -0.4996 O.2     
  36 H36            1.5532     0.6945     0.9458 H       
  37 H37            0.0650     0.5658     1.9138 H       
  38 H38            0.8470    -0.9039     1.2841 H       
  39 H39           -0.7680    -2.5052     1.0045 H       
  40 H40           -1.7252    -4.1377    -0.6850 H       
  41 H41           -2.2566    -2.7268    -1.7472 H       
  42 H42            0.1553    -1.9663    -1.9437 H       
  43 H43            0.6867    -3.3773    -0.8815 H       
  44 H44           -0.7531    -1.1558     2.4893 H       
  45 H45           -2.0180    -0.5817     4.5184 H       
  46 H46           -4.3195    -0.1744     5.4096 H       
  47 H47           -3.9252     1.5444     5.1729 H       
  48 H48           -6.3536     0.0290     4.1269 H       
  49 H49           -6.3293     1.4090     5.2553 H       
  50 H50           -5.3031     2.8157     3.4334 H       
  51 H51           -3.8159     0.5785     0.0858 H       
  52 H52           -6.9228     4.4175     3.0632 H       
  53 H53          -10.2274     0.9627     2.3023 H       
  54 H54          -11.8969     1.4526     1.7700 H       
  55 H55          -14.8810     1.5347     2.0150 H       
  56 H56          -14.8974     4.4773     1.4603 H       
  57 H57          -13.2395     6.1961     2.0474 H       
  58 H58           -0.1214     3.5580    -0.5474 H       
@<TRIPOS>BOND
   1    1    2 1
   2    1   36 1
   3    1   37 1
   4    1   38 1
   5    2    3 1
   6    2    4 1
   7    2   33 1
   8    4    5 1
   9    4    6 1
  10    4    9 1
  11    6    8 1
  12    6    7 1
  13    6   39 1
  14    7    8 1
  15    7   40 1
  16    7   41 1
  17    8   42 1
  18    8   43 1
  19    9   18 ar
  20    9   10 ar
  21   10   11 ar
  22   10   44 1
  23   11   12 ar
  24   11   45 1
  25   12   17 ar
  26   12   13 1
  27   13   14 1
  28   13   46 1
  29   13   47 1
  30   14   15 1
  31   14   48 1
  32   14   49 1
  33   15   16 1
  34   15   19 1
  35   15   50 1
  36   16   17 1
  37   17   18 ar
  38   18   51 1
  39   19   24 ar
  40   19   20 ar
  41   20   21 ar
  42   20   52 1
  43   21   22 ar
  44   22   23 ar
  45   22   25 1
  46   23   24 ar
  47   23   53 1
  48   25   31 ar
  49   25   26 ar
  50   26   27 ar
  51   26   54 1
  52   27   28 1
  53   27   29 ar
  54   28   55 1
  55   29   30 ar
  56   29   56 1
  57   30   31 ar
  58   30   57 1
  59   31   32 1
  60   33   34 1
  61   33   35 2
  62   34   58 1

#	End of record

