#	Name: ASD01209411
#	Creating user name:	WinNT
#	Creation time:	15. 06. 2019 19:11

#	Modifying user name:	WinNT
#	Modification time:	15. 06. 2019 19:11

#	Program:	/corina/corina34_cracker 3.40 0067  02.08.2006

@<TRIPOS>MOLECULE
ASD01209411
  45   46    0    0    0
SMALL
NO_CHARGES


@<TRIPOS>ATOM
   1 C1             0.9521     1.5811    -1.3652 C.2     
   2 C2             0.7642     0.0909    -1.2428 C.3     
   3 O3             1.7231     2.1550    -0.6330 O.2     
   4 O4             0.2671     2.2701    -2.2914 O.3     
   5 S5             1.8258    -0.5455     0.0833 S.3     
   6 N6             2.6131    -3.0798    -0.4100 N.am    
   7 C7             1.4566    -2.3215     0.0847 C.3     
   8 C8             1.2210    -2.8037     1.4972 C.2     
   9 C9             2.1444    -3.7250     1.7528 C.2     
  10 C10            3.0078    -3.9015     0.5807 C.2     
  11 O11            3.9427    -4.6764     0.5134 O.2     
  12 C12            2.2829    -4.4758     3.0521 C.3     
  13 C13            0.1435    -2.3296     2.4381 C.3     
  14 C14            3.2208    -2.9674    -1.7383 C.3     
  15 C15            4.3003    -1.9163    -1.7095 C.ar    
  16 C16            5.5994    -2.2700    -1.3987 C.ar    
  17 C17            6.5951    -1.3038    -1.3711 C.ar    
  18 C18            6.2857     0.0172    -1.6561 C.ar    
  19 C19            4.9816     0.3695    -1.9682 C.ar    
  20 C20            3.9905    -0.6013    -1.9995 C.ar    
  21 O21            4.6752     1.6636    -2.2476 O.3     
  22 C22            5.7462     2.6085    -2.2014 C.3     
  23 O23            7.8724    -1.6521    -1.0644 O.3     
  24 C24            8.8456    -0.6059    -1.0548 C.3     
  25 H25           -0.2782    -0.1259    -1.0094 H       
  26 H26            1.0328    -0.3877    -2.1846 H       
  27 H27            0.4209     3.2240    -2.3319 H       
  28 H28            0.5820    -2.5238    -0.5336 H       
  29 H29            1.6861    -5.3870     3.0106 H       
  30 H30            3.3297    -4.7341     3.2127 H       
  31 H31            1.9332    -3.8495     3.8728 H       
  32 H32           -0.7571    -2.9251     2.2888 H       
  33 H33            0.4855    -2.4397     3.4672 H       
  34 H34           -0.0772    -1.2809     2.2389 H       
  35 H35            3.6549    -3.9263    -2.0216 H       
  36 H36            2.4582    -2.6852    -2.4641 H       
  37 H37            5.8399    -3.2992    -1.1767 H       
  38 H38            7.0591     0.7706    -1.6348 H       
  39 H39            2.9752    -0.3281    -2.2465 H       
  40 H40            5.3659     3.6008    -2.4438 H       
  41 H41            6.1782     2.6193    -1.2007 H       
  42 H42            6.5114     2.3260    -2.9244 H       
  43 H43            9.8205    -1.0189    -0.7956 H       
  44 H44            8.8962    -0.1476    -2.0425 H       
  45 H45            8.5627     0.1469    -0.3190 H       
@<TRIPOS>BOND
   1    1    2 1
   2    1    3 2
   3    1    4 1
   4    2    5 1
   5    2   25 1
   6    2   26 1
   7    4   27 1
   8    5    7 1
   9    6    7 1
  10    6   10 am
  11    6   14 1
  12    7    8 1
  13    7   28 1
  14    8    9 2
  15    8   13 1
  16    9   10 1
  17    9   12 1
  18   10   11 2
  19   12   29 1
  20   12   30 1
  21   12   31 1
  22   13   32 1
  23   13   33 1
  24   13   34 1
  25   14   15 1
  26   14   35 1
  27   14   36 1
  28   15   16 ar
  29   15   20 ar
  30   16   17 ar
  31   16   37 1
  32   17   18 ar
  33   17   23 1
  34   18   19 ar
  35   18   38 1
  36   19   20 ar
  37   19   21 1
  38   20   39 1
  39   21   22 1
  40   22   40 1
  41   22   41 1
  42   22   42 1
  43   23   24 1
  44   24   43 1
  45   24   44 1
  46   24   45 1

#	End of record

