#	Name: ASD06170088
#	Creating user name:	WinNT
#	Creation time:	15. 06. 2019 21:05

#	Modifying user name:	WinNT
#	Modification time:	15. 06. 2019 21:05

#	Program:	/corina/corina34_cracker 3.40 0067  02.08.2006

@<TRIPOS>MOLECULE
ASD06170088
  64   68    0    0    0
SMALL
NO_CHARGES


@<TRIPOS>ATOM
   1 N1             1.1822    -1.7694    -1.3802 N.pl3   
   2 N2             0.3148    -1.0228    -0.5777 N.am    
   3 C3             1.0382    -0.1695     0.1744 C.2     
   4 C4             2.4492    -0.3858    -0.1696 C.2     
   5 C5             2.4700    -1.3906    -1.1394 C.2     
   6 C6             3.6064     0.3144     0.3927 C.2     
   7 O7             4.7334    -0.0292     0.0869 O.2     
   8 N8             3.4233     1.3391     1.2488 N.am    
   9 C9             3.6724    -1.9444    -1.7884 C.ar    
  10 C10            4.6183    -1.0893    -2.3610 C.ar    
  11 C11            5.7405    -1.6147    -2.9664 C.ar    
  12 C12            5.9313    -2.9848    -3.0079 C.ar    
  13 C13            4.9989    -3.8377    -2.4435 C.ar    
  14 C14            3.8749    -3.3269    -1.8292 C.ar    
  15 O15            0.6043     0.6284     0.9847 O.2     
  16 C16           -1.1448    -1.1470    -0.5579 C.3     
  17 C17            0.7710    -2.8055    -2.3307 C.3     
  18 C18            4.5259     1.9366     1.8717 C.ar    
  19 C19            5.6565     1.1817     2.1558 C.ar    
  20 C20            6.7446     1.7725     2.7702 C.ar    
  21 C21            6.7063     3.1213     3.1032 C.ar    
  22 C22            5.5770     3.8739     2.8191 C.ar    
  23 C23            4.4913     3.2851     2.2002 C.ar    
  24 F24            7.8448     1.0390     3.0475 F       
  25 O25            7.7764     3.7029     3.7081 O.3     
  26 N26           10.8164     5.0974     1.2948 N.ar    
  27 C27            9.8082     4.4393     0.7725 C.ar    
  28 C28            8.7670     3.9539     1.5534 C.ar    
  29 C29            8.7796     4.1640     2.9212 C.ar    
  30 C30            9.8698     4.8742     3.4724 C.ar    
  31 C31            9.9526     5.1257     4.8501 C.ar    
  32 C32           11.0206     5.8146     5.3480 C.ar    
  33 C33           12.0356     6.2733     4.4962 C.ar    
  34 C34           11.9797     6.0422     3.1520 C.ar    
  35 C35           10.8933     5.3362     2.6095 C.ar    
  36 O36           13.0886     6.9572     5.0157 O.3     
  37 C37           14.0913     7.3991     4.0984 C.3     
  38 O38           11.1008     6.0589     6.6832 O.3     
  39 C39           10.0353     5.5662     7.4981 C.3     
  40 H40            2.5277     1.6627     1.4335 H       
  41 H41            4.4706    -0.0199    -2.3297 H       
  42 H42            6.4721    -0.9553    -3.4095 H       
  43 H43            6.8121    -3.3905    -3.4833 H       
  44 H44            5.1543    -4.9059    -2.4800 H       
  45 H45            3.1505    -3.9934    -1.3849 H       
  46 H46           -1.4362    -1.8893     0.1852 H       
  47 H47           -1.5880    -0.1843    -0.3030 H       
  48 H48           -1.4962    -1.4598    -1.5411 H       
  49 H49           -0.3145    -2.9029    -2.3149 H       
  50 H50            1.0964    -2.5284    -3.3334 H       
  51 H51            1.2252    -3.7561    -2.0510 H       
  52 H52            5.6854     0.1335     1.8971 H       
  53 H53            5.5478     4.9220     3.0780 H       
  54 H54            3.6138     3.8732     1.9752 H       
  55 H55            9.7877     4.2702    -0.2940 H       
  56 H56            7.9504     3.4160     1.0949 H       
  57 H57            9.1751     4.7764     5.5132 H       
  58 H58           12.7687     6.4010     2.5075 H       
  59 H59           14.8726     7.9301     4.6423 H       
  60 H60           14.5239     6.5374     3.5901 H       
  61 H61           13.6423     8.0669     3.3633 H       
  62 H62            9.0946     6.0120     7.1747 H       
  63 H63            9.9757     4.4821     7.4017 H       
  64 H64           10.2229     5.8287     8.5392 H       
@<TRIPOS>BOND
   1    1    2 1
   2    1    5 1
   3    1   17 1
   4    2    3 am
   5    2   16 1
   6    3    4 1
   7    3   15 2
   8    4    5 2
   9    4    6 1
  10    5    9 1
  11    6    7 2
  12    6    8 am
  13    8   18 1
  14    8   40 1
  15    9   10 ar
  16    9   14 ar
  17   10   11 ar
  18   10   41 1
  19   11   12 ar
  20   11   42 1
  21   12   13 ar
  22   12   43 1
  23   13   14 ar
  24   13   44 1
  25   14   45 1
  26   16   46 1
  27   16   47 1
  28   16   48 1
  29   17   49 1
  30   17   50 1
  31   17   51 1
  32   18   19 ar
  33   18   23 ar
  34   19   20 ar
  35   19   52 1
  36   20   21 ar
  37   20   24 1
  38   21   22 ar
  39   21   25 1
  40   22   23 ar
  41   22   53 1
  42   23   54 1
  43   25   29 1
  44   26   27 ar
  45   26   35 ar
  46   27   28 ar
  47   27   55 1
  48   28   29 ar
  49   28   56 1
  50   29   30 ar
  51   30   31 ar
  52   30   35 ar
  53   31   32 ar
  54   31   57 1
  55   32   33 ar
  56   32   38 1
  57   33   34 ar
  58   33   36 1
  59   34   35 ar
  60   34   58 1
  61   36   37 1
  62   37   59 1
  63   37   60 1
  64   37   61 1
  65   38   39 1
  66   39   62 1
  67   39   63 1
  68   39   64 1

#	End of record

