#	Name: ASD08178094
#	Creating user name:	WinNT
#	Creation time:	15. 06. 2019 21:18

#	Modifying user name:	WinNT
#	Modification time:	15. 06. 2019 21:18

#	Program:	/corina/corina34_cracker 3.40 0067  02.08.2006

@<TRIPOS>MOLECULE
ASD08178094
  67   72    0    0    0
SMALL
NO_CHARGES


@<TRIPOS>ATOM
   1 N1            -0.0150     1.2583     0.0090 N.2     
   2 N2             0.0021    -0.0041     0.0020 N.2     
   3 C3             1.1271     1.8769     0.0014 C.2     
   4 S4             2.3826     0.7116    -0.0169 S.3     
   5 C5             1.1681    -0.5677    -0.0121 C.2     
   6 N6             1.3017     3.2566     0.0071 N.am    
   7 C7             0.2284     4.0717     0.0222 C.2     
   8 O8            -0.8897     3.6019     0.0309 O.2     
   9 C9             1.4387    -2.0502    -0.0217 C.3     
  10 C10            1.5173    -2.5450    -1.4674 C.3     
  11 C11            2.1718    -6.2170    -3.4310 C.3     
  12 C12            2.2195    -6.5434    -4.9015 C.2     
  13 N13            3.2727    -6.5215    -5.6551 N.2     
  14 S14            0.8525    -7.0314    -5.9038 S.3     
  15 C15            1.9042    -7.1394    -7.2517 C.2     
  16 N16            3.1057    -6.8287    -6.8682 N.2     
  17 N17            1.5340    -7.5046    -8.5415 N.am    
  18 C18            2.4593    -7.5523    -9.5203 C.2     
  19 O19            3.6149    -7.2766    -9.2761 O.2     
  20 C20            2.0581    -7.9480   -10.9179 C.3     
  21 C21            0.4176     5.5667     0.0285 C.3     
  22 C22            1.9004    -4.7224    -3.2489 C.3     
  23 C23            0.0279     6.3229     1.3002 C.3     
  24 C24           -0.8400     6.4379     0.0454 C.3     
  25 C25            3.1546    -7.9832   -11.9844 C.3     
  26 C26            2.5687    -9.2900   -11.4462 C.3     
  27 C27            2.7763    -7.5757   -13.3851 C.ar    
  28 C28           -0.7957     7.7386    -0.7144 C.ar    
  29 C29           -1.6858     7.9664    -1.7472 C.ar    
  30 C30           -1.6452     9.1595    -2.4442 C.ar    
  31 C31           -0.7148    10.1250    -2.1080 C.ar    
  32 C32            0.1747     9.8976    -1.0746 C.ar    
  33 C33            0.1312     8.7062    -0.3748 C.ar    
  34 C34            3.4098    -6.5055   -13.9886 C.ar    
  35 C35            3.0627    -6.1318   -15.2734 C.ar    
  36 C36            2.0824    -6.8286   -15.9549 C.ar    
  37 C37            1.4495    -7.8993   -15.3517 C.ar    
  38 C38            1.7997    -8.2758   -14.0685 C.ar    
  39 S39            1.8430    -4.3295    -1.4789 S.3     
  40 H40            2.1959     3.6323     0.0002 H       
  41 H41            2.3840    -2.2503     0.4827 H       
  42 H42            0.6331    -2.5700     0.4969 H       
  43 H43            0.5720    -2.3449    -1.9718 H       
  44 H44            2.3230    -2.0252    -1.9860 H       
  45 H45            1.3758    -6.7912    -2.9570 H       
  46 H46            3.1267    -6.4716    -2.9712 H       
  47 H47            0.6097    -7.7250    -8.7368 H       
  48 H48            1.0632    -7.6298   -11.2293 H       
  49 H49            1.2773     5.9341    -0.5320 H       
  50 H50            2.6965    -4.1481    -3.7229 H       
  51 H51            0.9455    -4.4678    -3.7088 H       
  52 H52           -0.3654     5.7389     2.1323 H       
  53 H53            0.6309     7.1879     1.5761 H       
  54 H54           -1.8042     5.9297     0.0521 H       
  55 H55            4.1662    -7.7200   -11.6751 H       
  56 H56            3.1948    -9.8867   -10.7828 H       
  57 H57            1.9096    -9.8552   -12.1052 H       
  58 H58           -2.4127     7.2120    -2.0099 H       
  59 H59           -2.3401     9.3371    -3.2516 H       
  60 H60           -0.6826    11.0568    -2.6530 H       
  61 H61            0.9018    10.6518    -0.8121 H       
  62 H62            0.8261     8.5286     0.4327 H       
  63 H63            4.1757    -5.9612   -13.4561 H       
  64 H64            3.5572    -5.2952   -15.7446 H       
  65 H65            1.8107    -6.5361   -16.9584 H       
  66 H66            0.6834    -8.4435   -15.8840 H       
  67 H67            1.3052    -9.1123   -13.5973 H       
@<TRIPOS>BOND
   1    1    2 1
   2    1    3 2
   3    2    5 2
   4    3    4 1
   5    3    6 1
   6    4    5 1
   7    5    9 1
   8    6    7 am
   9    6   40 1
  10    7    8 2
  11    7   21 1
  12    9   10 1
  13    9   41 1
  14    9   42 1
  15   10   39 1
  16   10   43 1
  17   10   44 1
  18   11   12 1
  19   11   22 1
  20   11   45 1
  21   11   46 1
  22   12   13 2
  23   12   14 1
  24   13   16 1
  25   14   15 1
  26   15   16 2
  27   15   17 1
  28   17   18 am
  29   17   47 1
  30   18   19 2
  31   18   20 1
  32   20   25 1
  33   20   26 1
  34   20   48 1
  35   21   23 1
  36   21   24 1
  37   21   49 1
  38   22   39 1
  39   22   50 1
  40   22   51 1
  41   23   24 1
  42   23   52 1
  43   23   53 1
  44   24   28 1
  45   24   54 1
  46   25   26 1
  47   25   27 1
  48   25   55 1
  49   26   56 1
  50   26   57 1
  51   27   34 ar
  52   27   38 ar
  53   28   29 ar
  54   28   33 ar
  55   29   30 ar
  56   29   58 1
  57   30   31 ar
  58   30   59 1
  59   31   32 ar
  60   31   60 1
  61   32   33 ar
  62   32   61 1
  63   33   62 1
  64   34   35 ar
  65   34   63 1
  66   35   36 ar
  67   35   64 1
  68   36   37 ar
  69   36   65 1
  70   37   38 ar
  71   37   66 1
  72   38   67 1

#	End of record

