#	Name: ASD00844744
#	Creating user name:	WinNT
#	Creation time:	15. 06. 2019 18:50

#	Modifying user name:	WinNT
#	Modification time:	15. 06. 2019 18:50

#	Program:	/corina/corina34_cracker 3.40 0067  02.08.2006

@<TRIPOS>MOLECULE
ASD00844744
  89   94    0    0    0
SMALL
NO_CHARGES


@<TRIPOS>ATOM
   1 C1             0.7858     1.2408    -0.4442 C.ar    
   2 C2             1.0205    -0.1030    -0.6954 C.ar    
   3 C3             0.9065    -1.0287     0.3319 C.ar    
   4 C4             0.5599    -0.6101     1.6018 C.ar    
   5 C5             0.3260     0.7301     1.8496 C.ar    
   6 C6             0.4393     1.6544     0.8278 C.ar    
   7 C7             1.1603    -2.4895     0.0624 C.3     
   8 C8             0.8423    -3.3184     1.2886 C.2     
   9 C9             0.3340    -2.9640    -1.1347 C.3     
  10 C10           -1.1222    -2.6614    -0.8916 C.2     
  11 N11           -2.0543    -3.0878    -1.7667 N.am    
  12 O12           -1.4553    -2.0343     0.0916 O.2     
  13 C13           -3.4665    -2.7077    -1.6103 C.3     
  14 C14           -3.9678    -2.1389    -2.9420 C.3     
  15 N15           -3.6999    -3.1053    -4.0154 N.3     
  16 C16           -2.2577    -3.3280    -4.1842 C.3     
  17 C17           -1.6853    -3.9405    -2.9069 C.3     
  18 N18           -4.3111    -2.6798    -5.2642 N.3     
  19 C19           -4.0430    -3.6466    -6.3380 C.3     
  20 C20           -4.7675    -3.2043    -7.6116 C.3     
  21 N21           -4.3100    -1.8602    -7.9907 N.3     
  22 C22           -4.5780    -0.8934    -6.9169 C.3     
  23 C23           -3.8535    -1.3357    -5.6433 C.3     
  24 H24           -3.3310    -1.8670    -8.2350 H       
  25 O25           -0.2375    -3.4153     1.8320 O.2     
  26 N26            1.9803    -3.9271     1.6615 N.am    
  27 C27            2.6328    -2.7366    -0.1750 C.ar    
  28 C28            3.0487    -3.6095     0.8275 C.ar    
  29 C29            3.5121    -2.2783    -1.1230 C.ar    
  30 C30            4.8493    -2.6897    -1.0888 C.ar    
  31 C31            5.2746    -3.5671    -0.0840 C.ar    
  32 C32            4.3810    -4.0215     0.8621 C.ar    
  33 F33            6.5634    -3.9701    -0.0423 F       
  34 C34            1.7578    -6.5711     2.3926 C.ar    
  35 C35            0.4965    -6.8856     1.9074 C.ar    
  36 C36            2.7484    -7.5342     2.4210 C.ar    
  37 C37            2.4859    -8.8121     1.9664 C.ar    
  38 C38            1.2258    -9.1318     1.4802 C.ar    
  39 C39            0.2304    -8.1676     1.4510 C.ar    
  40 O40            0.9680   -10.3891     1.0335 O.3     
  41 O41           -0.4774    -5.9382     1.8801 O.3     
  42 C42           -1.7518    -6.3324     1.3676 C.3     
  43 C43            2.0405   -11.3315     1.0936 C.3     
  44 C44            5.7751    -2.2175    -2.0740 C.1     
  45 N45            6.5095    -1.8428    -2.8555 N.1     
  46 S46            2.0988    -4.9403     2.9660 S.o2    
  47 O47            3.4644    -4.9305     3.3589 O.2     
  48 O48            1.0355    -4.5925     3.8422 O.2     
  49 O49            1.3609    -0.5124    -1.9458 O.3     
  50 C50            1.3897     0.4844    -2.9694 C.3     
  51 C51            1.8710    -0.1433    -4.2790 C.3     
  52 F52            3.1179    -0.7448    -4.0773 F       
  53 F53            0.9501    -1.1088    -4.6996 F       
  54 H54            0.8782     1.9638    -1.2411 H       
  55 H55            0.4711    -1.3302     2.4017 H       
  56 H56            0.0544     1.0553     2.8430 H       
  57 H57            0.2562     2.7005     1.0238 H       
  58 H58            0.6673    -2.4465    -2.0343 H       
  59 H59            0.4652    -4.0383    -1.2639 H       
  60 H60           -4.0545    -3.5855    -1.3425 H       
  61 H61           -3.5578    -1.9508    -0.8313 H       
  62 H62           -5.0402    -1.9544    -2.8780 H       
  63 H63           -3.4497    -1.2042    -3.1564 H       
  64 H64           -2.0898    -4.0059    -5.0211 H       
  65 H65           -1.7634    -2.3768    -4.3813 H       
  66 H66           -0.5998    -4.0013    -2.9845 H       
  67 H67           -2.1011    -4.9374    -2.7605 H       
  68 H68           -2.9705    -3.6921    -6.5270 H       
  69 H69           -4.4020    -4.6313    -6.0388 H       
  70 H70           -4.5467    -3.9043    -8.4174 H       
  71 H71           -5.8422    -3.1850    -7.4306 H       
  72 H72           -4.2190     0.0913    -7.2161 H       
  73 H73           -5.6505    -0.8478    -6.7279 H       
  74 H74           -4.0744    -0.6357    -4.8375 H       
  75 H75           -2.7788    -1.3550    -5.8243 H       
  76 H76            3.1732    -1.6020    -1.8938 H       
  77 H77            4.7143    -4.6983     1.6349 H       
  78 H78            3.7296    -7.2875     2.7990 H       
  79 H79            3.2619    -9.5629     1.9890 H       
  80 H80           -0.7509    -8.4145     1.0733 H       
  81 H81           -2.4354    -5.4841     1.4019 H       
  82 H82           -1.6407    -6.6681     0.3366 H       
  83 H83           -2.1513    -7.1456     1.9735 H       
  84 H84            2.8745   -10.9718     0.4909 H       
  85 H85            2.3638   -11.4487     2.1280 H       
  86 H86            1.7015   -12.2929     0.7078 H       
  87 H87            0.3882     0.8916    -3.1082 H       
  88 H88            2.0702     1.2845    -2.6783 H       
  89 H89            1.9600     0.6304    -5.0416 H       
@<TRIPOS>BOND
   1    1    2 ar
   2    1    6 ar
   3    1   54 1
   4    2    3 ar
   5    2   49 1
   6    3    4 ar
   7    3    7 1
   8    4    5 ar
   9    4   55 1
  10    5    6 ar
  11    5   56 1
  12    6   57 1
  13    7    8 1
  14    7    9 1
  15    7   27 1
  16    8   25 2
  17    8   26 am
  18    9   10 1
  19    9   58 1
  20    9   59 1
  21   10   11 am
  22   10   12 2
  23   11   13 1
  24   11   17 1
  25   13   14 1
  26   13   60 1
  27   13   61 1
  28   14   15 1
  29   14   62 1
  30   14   63 1
  31   15   16 1
  32   15   18 1
  33   16   17 1
  34   16   64 1
  35   16   65 1
  36   17   66 1
  37   17   67 1
  38   18   19 1
  39   18   23 1
  40   19   20 1
  41   19   68 1
  42   19   69 1
  43   20   21 1
  44   20   70 1
  45   20   71 1
  46   21   22 1
  47   21   24 1
  48   22   23 1
  49   22   72 1
  50   22   73 1
  51   23   74 1
  52   23   75 1
  53   26   46 am
  54   26   28 1
  55   27   28 ar
  56   27   29 ar
  57   28   32 ar
  58   29   30 ar
  59   29   76 1
  60   30   31 ar
  61   30   44 1
  62   31   32 ar
  63   31   33 1
  64   32   77 1
  65   34   35 ar
  66   34   36 ar
  67   34   46 1
  68   35   41 1
  69   35   39 ar
  70   36   37 ar
  71   36   78 1
  72   37   38 ar
  73   37   79 1
  74   38   39 ar
  75   38   40 1
  76   39   80 1
  77   40   43 1
  78   41   42 1
  79   42   81 1
  80   42   82 1
  81   42   83 1
  82   43   84 1
  83   43   85 1
  84   43   86 1
  85   44   45 3
  86   46   47 2
  87   46   48 2
  88   49   50 1
  89   50   51 1
  90   50   87 1
  91   50   88 1
  92   51   52 1
  93   51   53 1
  94   51   89 1

#	End of record

