#	Name: ASD01910604
#	Creating user name:	WinNT
#	Creation time:	15. 06. 2019 19:56

#	Modifying user name:	WinNT
#	Modification time:	15. 06. 2019 19:56

#	Program:	/corina/corina34_cracker 3.40 0067  02.08.2006

@<TRIPOS>MOLECULE
ASD01910604
  46   49    0    0    0
SMALL
NO_CHARGES


@<TRIPOS>ATOM
   1 C1             0.0247     1.2359    -0.0728 C.ar    
   2 N2             0.0560    -0.0825    -0.0818 N.ar    
   3 C3             1.1900    -0.7556    -0.0866 C.ar    
   4 C4             2.4042    -0.0990    -0.0820 C.ar    
   5 C5             2.4187     1.3000    -0.0725 C.ar    
   6 C6             1.1920     1.9727    -0.0681 C.ar    
   7 C7             3.6958     2.0472    -0.0668 C.2     
   8 N8             3.8414     3.3595    -0.0578 N.2     
   9 C9             5.1662     3.5746    -0.0557 C.2     
  10 N10            5.7533     2.4144    -0.0632 N.2     
  11 O11            4.9308     1.5230    -0.0638 O.3     
  12 C12            5.8495     4.9177    -0.0462 C.3     
  13 C13            6.7234     5.0374     1.2044 C.3     
  14 C14            7.3922     6.4137     1.2317 C.3     
  15 C15            8.2889     6.5658    -0.0010 C.3     
  16 N16            7.4860     6.3088    -1.2044 N.am    
  17 C17            6.7287     5.0529    -1.2935 C.3     
  18 C18            7.4450     7.2080    -2.2075 C.2     
  19 C19            8.1354     8.5061    -2.0645 C.ar    
  20 O20            6.8399     6.9508    -3.2300 O.2     
  21 C21            9.4953     8.5456    -1.7501 C.ar    
  22 C22           10.1347     9.7597    -1.6182 C.ar    
  23 C23            9.4300    10.9401    -1.7968 C.ar    
  24 C24            8.0792    10.9067    -2.1087 C.ar    
  25 C25            7.4315     9.6983    -2.2489 C.ar    
  26 F26           10.0614    12.1273    -1.6660 F       
  27 C27            5.9636     9.6635    -2.5883 C.3     
  28 H28           -0.9272     1.7460    -0.0737 H       
  29 H29            1.1684    -1.8354    -0.0939 H       
  30 H30            3.3291    -0.6567    -0.0853 H       
  31 H31            1.1588     3.0522    -0.0611 H       
  32 H32            5.0987     5.7079    -0.0424 H       
  33 H33            6.1039     4.9170     2.0932 H       
  34 H34            7.4891     4.2619     1.1880 H       
  35 H35            6.6273     7.1901     1.2232 H       
  36 H36            7.9959     6.5070     2.1344 H       
  37 H37            8.6897     7.5787    -0.0386 H       
  38 H38            9.1078     5.8483     0.0520 H       
  39 H39            7.4204     4.2120    -1.3458 H       
  40 H40            6.1001     5.0676    -2.1838 H       
  41 H41           10.0450     7.6266    -1.6101 H       
  42 H42           11.1865     9.7914    -1.3751 H       
  43 H43            7.5347    11.8292    -2.2460 H       
  44 H44            5.8388     9.7353    -3.6688 H       
  45 H45            5.5309     8.7280    -2.2339 H       
  46 H46            5.4596    10.5020    -2.1078 H       
@<TRIPOS>BOND
   1    1    2 ar
   2    1    6 ar
   3    1   28 1
   4    2    3 ar
   5    3    4 ar
   6    3   29 1
   7    4    5 ar
   8    4   30 1
   9    5    6 ar
  10    5    7 1
  11    6   31 1
  12    7    8 2
  13    7   11 1
  14    8    9 1
  15    9   10 2
  16    9   12 1
  17   10   11 1
  18   12   13 1
  19   12   17 1
  20   12   32 1
  21   13   14 1
  22   13   33 1
  23   13   34 1
  24   14   15 1
  25   14   35 1
  26   14   36 1
  27   15   16 1
  28   15   37 1
  29   15   38 1
  30   16   17 1
  31   16   18 am
  32   17   39 1
  33   17   40 1
  34   18   19 1
  35   18   20 2
  36   19   21 ar
  37   19   25 ar
  38   21   22 ar
  39   21   41 1
  40   22   23 ar
  41   22   42 1
  42   23   24 ar
  43   23   26 1
  44   24   25 ar
  45   24   43 1
  46   25   27 1
  47   27   44 1
  48   27   45 1
  49   27   46 1

#	End of record

