#	Name: ASD01200410
#	Creating user name:	WinNT
#	Creation time:	15. 06. 2019 19:09

#	Modifying user name:	WinNT
#	Modification time:	15. 06. 2019 19:09

#	Program:	/corina/corina34_cracker 3.40 0067  02.08.2006

@<TRIPOS>MOLECULE
ASD01200410
  62   66    0    0    0
SMALL
NO_CHARGES


@<TRIPOS>ATOM
   1 C1             0.3074     1.0889     1.6243 C.ar    
   2 C2             0.2297    -0.2184     1.1336 C.ar    
   3 C3             1.3056    -0.7585     0.4587 C.ar    
   4 C4             2.4632    -0.0074     0.2668 C.ar    
   5 C5             2.5515     1.2805     0.7453 C.ar    
   6 C6             3.6304    -0.6107    -0.4712 C.3     
   7 C7             3.4490    -0.4329    -1.9950 C.3     
   8 C8             4.2209     0.8818    -2.2532 C.3     
   9 C9             5.2191     0.9547    -1.1188 C.2     
  10 N10            4.8672     0.1056    -0.1380 N.am    
  11 C11           -0.6190     1.9496     2.3573 C.2     
  12 C12            1.4786     1.8447     1.4281 C.ar    
  13 N13            1.2750     3.0785     2.0087 N.pl3   
  14 C14            0.0164     3.1302     2.5629 C.2     
  15 C15            5.6214    -0.0808     1.1041 C.3     
  16 O16            1.2356    -2.0290    -0.0206 O.3     
  17 O17            6.1953     1.6741    -1.0977 O.2     
  18 C18            0.0532    -2.6890     0.0917 C.ar    
  19 C19           -1.4041    -4.1442     1.3187 C.ar    
  20 C20           -2.3543    -4.0326     0.3204 C.ar    
  21 C21           -2.1010    -3.2553    -0.7947 C.ar    
  22 C22           -0.8998    -2.5833    -0.9114 C.ar    
  23 C23           -0.2012    -3.4743     1.2070 C.ar    
  24 S24           -3.8876    -4.8884     0.4661 S.o2    
  25 O25           -4.3132    -5.0759    -0.8766 O.2     
  26 O26           -3.5913    -5.9983     1.3025 O.2     
  27 C27           -4.9788    -3.7194     1.3224 C.3     
  28 C28           -0.5569     4.2953     3.2694 C.ar    
  29 N29           -1.7896     4.2275     3.7601 N.ar    
  30 C30           -2.3360     5.2435     4.3958 C.ar    
  31 C31           -1.6412     6.4256     4.5760 C.ar    
  32 C32           -0.3501     6.5397     4.0793 C.ar    
  33 C33            0.2029     5.4557     3.4208 C.ar    
  34 C34           -2.2802     7.5797     5.3046 C.3     
  35 F35           -3.5723     7.2212     5.7037 F       
  36 F36           -1.5160     7.9001     6.4318 F       
  37 F37           -2.3455     8.6890     4.4547 F       
  38 C38           -6.3583    -4.3538     1.5109 C.3     
  39 H39           -0.6668    -0.8020     1.2823 H       
  40 H40            3.4540     1.8531     0.5905 H       
  41 H41            3.7268    -1.6679    -0.2237 H       
  42 H42            3.8982    -1.2627    -2.5408 H       
  43 H43            2.3954    -0.3237    -2.2523 H       
  44 H44            4.7363     0.8394    -3.2127 H       
  45 H45            3.5432     1.7348    -2.2204 H       
  46 H46           -1.6192     1.6942     2.6747 H       
  47 H47            1.9211     3.8018     2.0231 H       
  48 H48            6.3595    -0.8709     0.9659 H       
  49 H49            6.1282     0.8484     1.3644 H       
  50 H50            4.9375    -0.3587     1.9061 H       
  51 H51           -1.6043    -4.7520     2.1887 H       
  52 H52           -2.8448    -3.1698    -1.5730 H       
  53 H53           -0.7026    -1.9760    -1.7824 H       
  54 H54            0.5408    -3.5621     1.9869 H       
  55 H55           -4.5556    -3.4741     2.2965 H       
  56 H56           -5.0749    -2.8104     0.7287 H       
  57 H57           -3.3407     5.1523     4.7814 H       
  58 H58            0.2118     7.4530     4.2075 H       
  59 H59            1.2067     5.5085     3.0259 H       
  60 H60           -6.7815    -4.5991     0.5368 H       
  61 H61           -6.2621    -5.2628     2.1047 H       
  62 H62           -7.0140    -3.6514     2.0255 H       
@<TRIPOS>BOND
   1    1    2 ar
   2    1   12 ar
   3    1   11 1
   4    2    3 ar
   5    2   39 1
   6    3    4 ar
   7    3   16 1
   8    4    5 ar
   9    4    6 1
  10    5   12 ar
  11    5   40 1
  12    6    7 1
  13    6   10 1
  14    6   41 1
  15    7    8 1
  16    7   42 1
  17    7   43 1
  18    8    9 1
  19    8   44 1
  20    8   45 1
  21    9   10 am
  22    9   17 2
  23   10   15 1
  24   11   14 2
  25   11   46 1
  26   12   13 1
  27   13   14 1
  28   13   47 1
  29   14   28 1
  30   15   48 1
  31   15   49 1
  32   15   50 1
  33   16   18 1
  34   18   23 ar
  35   18   22 ar
  36   19   20 ar
  37   19   23 ar
  38   19   51 1
  39   20   21 ar
  40   20   24 1
  41   21   22 ar
  42   21   52 1
  43   22   53 1
  44   23   54 1
  45   24   25 2
  46   24   26 2
  47   24   27 1
  48   27   38 1
  49   27   55 1
  50   27   56 1
  51   28   29 ar
  52   28   33 ar
  53   29   30 ar
  54   30   31 ar
  55   30   57 1
  56   31   32 ar
  57   31   34 1
  58   32   33 ar
  59   32   58 1
  60   33   59 1
  61   34   35 1
  62   34   36 1
  63   34   37 1
  64   38   60 1
  65   38   61 1
  66   38   62 1

#	End of record

