#	Name: ASD01918509
#	Creating user name:	WinNT
#	Creation time:	15. 06. 2019 20:11

#	Modifying user name:	WinNT
#	Modification time:	15. 06. 2019 20:11

#	Program:	/corina/corina34_cracker 3.40 0067  02.08.2006

@<TRIPOS>MOLECULE
ASD01918509
  41   44    0    0    0
SMALL
NO_CHARGES


@<TRIPOS>ATOM
   1 C1            -1.5481     1.0114    -0.2754 C.3     
   2 C2            -0.7208    -0.2405    -0.1356 C.ar    
   3 C3             0.0374    -0.6888    -1.2005 C.ar    
   4 C4             0.8004    -1.8380    -1.0811 C.ar    
   5 C5             0.8098    -2.5447     0.1025 C.ar    
   6 C6             0.0474    -2.0996     1.1847 C.ar    
   7 C7             0.0532    -2.8516     2.4558 C.2     
   8 O8             0.1332    -2.2572     3.5133 O.2     
   9 N9            -0.0303    -4.1967     2.4435 N.am    
  10 C10            0.0881    -4.9704     3.6884 C.3     
  11 C11           -1.2393    -5.6894     3.9608 C.3     
  12 C12           -1.7214    -6.3214     2.6805 C.2     
  13 O13           -2.6335    -7.2935     2.5319 O.3     
  14 C14           -2.7527    -7.5412     1.2135 C.2     
  15 N15           -1.9347    -6.7451     0.5611 N.2     
  16 C16           -1.2876    -5.9859     1.4467 C.2     
  17 C17           -0.2486    -4.9282     1.1826 C.3     
  18 C18           -3.6534    -8.5410     0.6019 C.ar    
  19 C19           -3.6723    -8.6984    -0.7841 C.ar    
  20 C20           -4.5204    -9.6382    -1.3428 C.ar    
  21 C21           -5.3243   -10.3923    -0.4964 C.ar    
  22 F22           -6.1656   -11.3204    -1.0024 F       
  23 C23           -5.2540   -10.1831     0.8722 C.ar    
  24 N24           -4.4338    -9.2857     1.3771 N.ar    
  25 C25           -0.7173    -0.9356     1.0603 C.ar    
  26 F26           -1.4541    -0.4941     2.1030 F       
  27 H27           -0.9511     1.8757     0.0155 H       
  28 H28           -1.8670     1.1222    -1.3118 H       
  29 H29           -2.4244     0.9416     0.3689 H       
  30 H30            0.0344    -0.1402    -2.1308 H       
  31 H31            1.3899    -2.1820    -1.9181 H       
  32 H32            1.4054    -3.4411     0.1926 H       
  33 H33            0.8864    -5.7054     3.5862 H       
  34 H34            0.3144    -4.2975     4.5155 H       
  35 H35           -1.0883    -6.4616     4.7151 H       
  36 H36           -1.9784    -4.9704     4.3142 H       
  37 H37           -0.6049    -4.2432     0.4132 H       
  38 H38            0.6808    -5.3981     0.8607 H       
  39 H39           -3.0341    -8.0948    -1.4124 H       
  40 H40           -4.5571    -9.7821    -2.4125 H       
  41 H41           -5.8774   -10.7669     1.5332 H       
@<TRIPOS>BOND
   1    1    2 1
   2    1   27 1
   3    1   28 1
   4    1   29 1
   5    2   25 ar
   6    2    3 ar
   7    3    4 ar
   8    3   30 1
   9    4    5 ar
  10    4   31 1
  11    5    6 ar
  12    5   32 1
  13    6    7 1
  14    6   25 ar
  15    7    8 2
  16    7    9 am
  17    9   17 1
  18    9   10 1
  19   10   11 1
  20   10   33 1
  21   10   34 1
  22   11   12 1
  23   11   35 1
  24   11   36 1
  25   12   16 2
  26   12   13 1
  27   13   14 1
  28   14   15 2
  29   14   18 1
  30   15   16 1
  31   16   17 1
  32   17   37 1
  33   17   38 1
  34   18   24 ar
  35   18   19 ar
  36   19   20 ar
  37   19   39 1
  38   20   21 ar
  39   20   40 1
  40   21   22 1
  41   21   23 ar
  42   23   24 ar
  43   23   41 1
  44   25   26 1

#	End of record

