#	Name: ASD02440038
#	Creating user name:	WinNT
#	Creation time:	15. 06. 2019 20:21

#	Modifying user name:	WinNT
#	Modification time:	15. 06. 2019 20:21

#	Program:	/corina/corina34_cracker 3.40 0067  02.08.2006

@<TRIPOS>MOLECULE
ASD02440038
  47   49    0    0    0
SMALL
NO_CHARGES


@<TRIPOS>ATOM
   1 O1            -0.4165     1.8243     0.6864 O.3     
   2 O2            -0.8453    -2.8858     1.1295 O.3     
   3 O3             3.4717    -0.9013     1.2009 O.3     
   4 O4             2.3806     4.0998     0.6338 O.3     
   5 O5             3.5746     1.6519     0.9542 O.2     
   6 O6            -2.3013     7.8563    -0.0379 O.3     
   7 C7            -0.6506    -0.5323     0.9069 C.ar    
   8 C8             0.1402     0.6051     0.8431 C.ar    
   9 C9             1.5370     0.4814     0.9429 C.ar    
  10 C10           -2.1493    -0.4142     0.8013 C.3     
  11 C11           -0.0638    -1.7775     1.0672 C.ar    
  12 C12            0.3192     2.9471     0.6201 C.2     
  13 C13            2.1232    -0.7810     1.1049 C.ar    
  14 C14            2.3576     1.7009     0.8728 C.2     
  15 C15            1.3181    -1.9027     1.1658 C.ar    
  16 C16            1.6790     2.9359     0.7063 C.2     
  17 C17           -0.3706     4.2388     0.4472 C.ar    
  18 C18           -2.5605    -0.5153    -0.6450 C.2     
  19 C19           -3.4605    -1.3944    -1.0101 C.2     
  20 C20           -1.3290     4.3926    -0.5588 C.ar    
  21 C21           -0.0724     5.3115     1.2925 C.ar    
  22 C22           -1.9709     5.6011    -0.7166 C.ar    
  23 C23           -0.7193     6.5164     1.1273 C.ar    
  24 C24           -3.9953    -2.3856    -0.0089 C.3     
  25 C25           -3.9611    -1.4144    -2.4314 C.3     
  26 C26           -1.6667     6.6665     0.1220 C.ar    
  27 C27           -1.9409     8.9094     0.8583 C.3     
  28 H28           -2.6180    -1.2178     1.3693 H       
  29 H29           -2.4671     0.5480     1.2029 H       
  30 H30            1.7629    -2.8789     1.2905 H       
  31 H31           -2.1131     0.1369    -1.3805 H       
  32 H32           -1.5655     3.5653    -1.2114 H       
  33 H33            0.6639     5.1957     2.0741 H       
  34 H34           -1.0176    -3.2944     0.2702 H       
  35 H35           -2.7114     5.7209    -1.4936 H       
  36 H36           -0.4895     7.3457     1.7798 H       
  37 H37           -3.1261    -1.5958    -3.1082 H       
  38 H38           -4.7000    -2.2076    -2.5453 H       
  39 H39           -4.4193    -0.4542    -2.6688 H       
  40 H40           -4.8103    -1.9301     0.5536 H       
  41 H41           -4.3638    -3.2679    -0.5323 H       
  42 H42           -3.1987    -2.6758     0.6761 H       
  43 H43            3.8078    -0.8489     2.1061 H       
  44 H44            3.3383     3.9868     0.7050 H       
  45 H45           -2.1492     8.6017     1.8830 H       
  46 H46           -0.8781     9.1279     0.7535 H       
  47 H47           -2.5203     9.8019     0.6221 H       
@<TRIPOS>BOND
   1    1    8 1
   2    1   12 1
   3    2   11 1
   4    2   34 1
   5    3   13 1
   6    3   43 1
   7    4   16 1
   8    4   44 1
   9    5   14 2
  10    6   26 1
  11    6   27 1
  12    7    8 ar
  13    7   10 1
  14    7   11 ar
  15    8    9 ar
  16    9   13 ar
  17    9   14 1
  18   10   18 1
  19   10   28 1
  20   10   29 1
  21   11   15 ar
  22   12   16 2
  23   12   17 1
  24   13   15 ar
  25   14   16 1
  26   15   30 1
  27   17   20 ar
  28   17   21 ar
  29   18   19 2
  30   18   31 1
  31   19   24 1
  32   19   25 1
  33   20   22 ar
  34   20   32 1
  35   21   23 ar
  36   21   33 1
  37   22   26 ar
  38   22   35 1
  39   23   26 ar
  40   23   36 1
  41   24   40 1
  42   24   41 1
  43   24   42 1
  44   25   37 1
  45   25   38 1
  46   25   39 1
  47   27   45 1
  48   27   46 1
  49   27   47 1

#	End of record

