#	Name: ASD03091366
#	Creating user name:	WinNT
#	Creation time:	15. 06. 2019 20:30

#	Modifying user name:	WinNT
#	Modification time:	15. 06. 2019 20:30

#	Program:	/corina/corina34_cracker 3.40 0067  02.08.2006

@<TRIPOS>MOLECULE
ASD03091366
  58   61    0    0    0
SMALL
NO_CHARGES


@<TRIPOS>ATOM
   1 C1            -0.0166     1.3766     0.0096 C.ar    
   2 C2             0.0021    -0.0041     0.0020 C.ar    
   3 C3             1.2139    -0.6894    -0.0132 C.ar    
   4 C4             2.4079    -0.0030    -0.0205 C.ar    
   5 C5             1.1879     2.0828     0.0019 C.ar    
   6 C6             1.5314     3.5069     0.0063 C.2     
   7 C7             2.4105     1.3876    -0.0130 C.ar    
   8 N8             3.4148     2.3326    -0.0167 N.pl3   
   9 C9             2.8713     3.5881    -0.0061 C.2     
  10 O10           -1.1679    -0.6972     0.0099 O.3     
  11 C11           -1.0771    -2.1233     0.0014 C.3     
  12 C12           -2.4842    -2.7240     0.0121 C.3     
  13 C13           -2.3870    -4.2509     0.0030 C.3     
  14 C14           -3.7941    -4.8516     0.0137 C.3     
  15 C15           -5.1062    -6.9748     0.0793 C.3     
  16 N16           -5.7528    -6.6021    -1.1854 N.3     
  17 C17           -5.8978    -5.1452    -1.2985 C.3     
  18 C18           -4.5142    -4.4912    -1.2886 C.3     
  19 C19           -3.6990    -6.3754     0.1304 C.3     
  20 C20           -7.0514    -7.2733    -1.3305 C.3     
  21 C21           -7.7912    -6.6873    -2.5055 C.ar    
  22 C22           -7.6294    -7.2322    -3.7656 C.ar    
  23 C23           -8.3079    -6.6947    -4.8433 C.ar    
  24 C24           -9.1486    -5.6126    -4.6609 C.ar    
  25 C25           -9.3111    -5.0683    -3.4006 C.ar    
  26 C26           -8.6359    -5.6086    -2.3221 C.ar    
  27 C27            3.6602     4.8721    -0.0067 C.3     
  28 O28            2.7617     5.9832     0.0079 O.3     
  29 H29           -0.9574     1.9071     0.0169 H       
  30 H30            1.2176    -1.7693    -0.0191 H       
  31 H31            3.3421    -0.5447    -0.0316 H       
  32 H32            0.8380     4.3348     0.0173 H       
  33 H33            4.3647     2.1365    -0.0264 H       
  34 H34           -0.5500    -2.4485    -0.8957 H       
  35 H35           -0.5324    -2.4580     0.8842 H       
  36 H36           -3.0112    -2.3989     0.9091 H       
  37 H37           -3.0289    -2.3893    -0.8707 H       
  38 H38           -1.8599    -4.5761    -0.8941 H       
  39 H39           -1.8423    -4.5856     0.8858 H       
  40 H40           -4.3528    -4.4555     0.8617 H       
  41 H41           -5.6941    -6.5930     0.9140 H       
  42 H42           -5.0412    -8.0607     0.1478 H       
  43 H43           -6.4077    -4.9023    -2.2308 H       
  44 H44           -6.4820    -4.7720    -0.4573 H       
  45 H45           -4.6229    -3.4088    -1.3568 H       
  46 H46           -3.9344    -4.8536    -2.1374 H       
  47 H47           -3.1063    -6.7674    -0.6961 H       
  48 H48           -3.2253    -6.6391     1.0759 H       
  49 H49           -6.8932    -8.3390    -1.4956 H       
  50 H50           -7.6382    -7.1293    -0.4233 H       
  51 H51           -6.9726    -8.0776    -3.9081 H       
  52 H52           -8.1810    -7.1199    -5.8279 H       
  53 H53           -9.6782    -5.1922    -5.5030 H       
  54 H54           -9.9676    -4.2227    -3.2582 H       
  55 H55           -8.7628    -5.1833    -1.3375 H       
  56 H56            4.2967     4.9079     0.8775 H       
  57 H57            4.2797     4.9175    -0.9024 H       
  58 H58            3.2012     6.8445     0.0084 H       
@<TRIPOS>BOND
   1    1    2 ar
   2    1    5 ar
   3    1   29 1
   4    2    3 ar
   5    2   10 1
   6    3    4 ar
   7    3   30 1
   8    4    7 ar
   9    4   31 1
  10    5    7 ar
  11    5    6 1
  12    6    9 2
  13    6   32 1
  14    7    8 1
  15    8    9 1
  16    8   33 1
  17    9   27 1
  18   10   11 1
  19   11   12 1
  20   11   34 1
  21   11   35 1
  22   12   13 1
  23   12   36 1
  24   12   37 1
  25   13   14 1
  26   13   38 1
  27   13   39 1
  28   14   19 1
  29   14   18 1
  30   14   40 1
  31   15   16 1
  32   15   19 1
  33   15   41 1
  34   15   42 1
  35   16   17 1
  36   16   20 1
  37   17   18 1
  38   17   43 1
  39   17   44 1
  40   18   45 1
  41   18   46 1
  42   19   47 1
  43   19   48 1
  44   20   21 1
  45   20   49 1
  46   20   50 1
  47   21   22 ar
  48   21   26 ar
  49   22   23 ar
  50   22   51 1
  51   23   24 ar
  52   23   52 1
  53   24   25 ar
  54   24   53 1
  55   25   26 ar
  56   25   54 1
  57   26   55 1
  58   27   28 1
  59   27   56 1
  60   27   57 1
  61   28   58 1

#	End of record

