#	Name: ASD01916675
#	Creating user name:	WinNT
#	Creation time:	15. 06. 2019 20:07

#	Modifying user name:	WinNT
#	Modification time:	15. 06. 2019 20:07

#	Program:	/corina/corina34_cracker 3.40 0067  02.08.2006

@<TRIPOS>MOLECULE
ASD01916675
  46   49    0    0    0
SMALL
NO_CHARGES


@<TRIPOS>ATOM
   1 C1            -0.0171     1.4100     0.0098 C.ar    
   2 C2             0.0021    -0.0041     0.0020 C.ar    
   3 C3            -1.1912    -0.7254     0.0414 C.ar    
   4 C4            -2.3838    -0.0639     0.0741 C.ar    
   5 C5            -2.4214     1.3385     0.0663 C.ar    
   6 C6            -1.2408     2.0763     0.0357 C.ar    
   7 N7             1.1598     2.0753     0.0021 N.2     
   8 C8             2.3197     1.4678    -0.0397 C.2     
   9 N9             2.4200     0.1197    -0.1575 N.am    
  10 C10            1.3104    -0.6628    -0.0625 C.2     
  11 C11           -3.7196     2.0359     0.0902 C.2     
  12 O12            1.4017    -1.8764    -0.0316 O.2     
  13 C13           -4.8627     1.3280     0.1194 C.2     
  14 C14            3.5356     2.3453     0.1020 C.3     
  15 C15            4.7921     1.6928    -0.4308 C.3     
  16 C16            4.8965     0.2364    -0.0270 C.3     
  17 C17            3.6796    -0.5617    -0.4368 C.3     
  18 C18            6.1348    -0.3736    -0.6869 C.3     
  19 C19            5.0556     0.1532     1.4924 C.3     
  20 C20           -6.1599     2.0248     0.1433 C.ar    
  21 N21           -6.1955     3.3540     0.1359 N.ar    
  22 C22           -7.3354     4.0134     0.1565 C.ar    
  23 C23           -8.5445     3.3426     0.1874 C.ar    
  24 C24           -8.5545     1.9540     0.1961 C.ar    
  25 C25           -7.3450     1.2842     0.1678 C.ar    
  26 Cl26          -3.7732     3.7710     0.0807 Cl      
  27 H27           -1.1710    -1.8052     0.0456 H       
  28 H28           -3.3065    -0.6243     0.1060 H       
  29 H29           -1.2731     3.1558     0.0321 H       
  30 H30           -4.8294     0.2485     0.1253 H       
  31 H31            3.3642     3.2746    -0.4412 H       
  32 H32            3.6804     2.5783     1.1569 H       
  33 H33            4.7909     1.7590    -1.5188 H       
  34 H34            5.6595     2.2294    -0.0465 H       
  35 H35            3.6888    -1.5120     0.0969 H       
  36 H36            3.7380    -0.7638    -1.5063 H       
  37 H37            7.0240     0.1644    -0.3581 H       
  38 H38            6.2188    -1.4224    -0.4022 H       
  39 H39            6.0439    -0.2974    -1.7704 H       
  40 H40            4.1897     0.6077     1.9738 H       
  41 H41            5.1316    -0.8918     1.7931 H       
  42 H42            5.9587     0.6843     1.7928 H       
  43 H43           -7.3259     5.0934     0.1497 H       
  44 H44           -9.4729     3.8940     0.2049 H       
  45 H45           -9.4867     1.4091     0.2201 H       
  46 H46           -7.3164     0.2046     0.1733 H       
@<TRIPOS>BOND
   1    1    2 ar
   2    1    7 1
   3    1    6 ar
   4    2    3 ar
   5    2   10 1
   6    3    4 ar
   7    3   27 1
   8    4    5 ar
   9    4   28 1
  10    5    6 ar
  11    5   11 1
  12    6   29 1
  13    7    8 2
  14    8    9 1
  15    8   14 1
  16    9   10 am
  17    9   17 1
  18   10   12 2
  19   11   13 2
  20   11   26 1
  21   13   20 1
  22   13   30 1
  23   14   15 1
  24   14   31 1
  25   14   32 1
  26   15   16 1
  27   15   33 1
  28   15   34 1
  29   16   17 1
  30   16   18 1
  31   16   19 1
  32   17   35 1
  33   17   36 1
  34   18   37 1
  35   18   38 1
  36   18   39 1
  37   19   40 1
  38   19   41 1
  39   19   42 1
  40   20   21 ar
  41   20   25 ar
  42   21   22 ar
  43   22   23 ar
  44   22   43 1
  45   23   24 ar
  46   23   44 1
  47   24   25 ar
  48   24   45 1
  49   25   46 1

#	End of record

