#	Name: ASD01901041
#	Creating user name:	WinNT
#	Creation time:	15. 06. 2019 19:53

#	Modifying user name:	WinNT
#	Modification time:	15. 06. 2019 19:53

#	Program:	/corina/corina34_cracker 3.40 0067  02.08.2006

@<TRIPOS>MOLECULE
ASD01901041
  40   42    0    0    0
SMALL
NO_CHARGES


@<TRIPOS>ATOM
   1 C1             0.6938     2.7832     1.2156 C.ar    
   2 C2             1.7319     3.1846     2.0538 C.ar    
   3 C3             2.8962     2.4339     2.0901 C.ar    
   4 C4             2.9821     1.3074     1.2867 C.ar    
   5 C5             1.9103     0.9672     0.4771 C.ar    
   6 N6             0.8166     1.6975     0.4620 N.ar    
   7 C7            -0.5597     3.5712     1.1698 C.2     
   8 O8            -0.6794     4.5632     1.8614 O.2     
   9 N9            -1.5674     3.1879     0.3610 N.am    
  10 C10           -2.7851     3.8748     0.3876 C.ar    
  11 C11           -2.8046     5.2493     0.5870 C.ar    
  12 C12           -4.0089     5.9248     0.6123 C.ar    
  13 C13           -5.1945     5.2342     0.4397 C.ar    
  14 C14           -5.1786     3.8658     0.2409 C.ar    
  15 C15           -3.9773     3.1851     0.2089 C.ar    
  16 S16           -6.7289     6.0997     0.4738 S.o2    
  17 O17           -7.7206     5.1446     0.8254 O.2     
  18 O18           -6.5010     7.2916     1.2131 O.2     
  19 N19           -7.0615     6.5690    -1.0791 N.am    
  20 C20           -7.2085     5.6082    -2.0832 C.ar    
  21 C21           -6.7594     5.8729    -3.3720 C.ar    
  22 C22           -6.9065     4.9204    -4.3620 C.ar    
  23 C23           -7.4998     3.7052    -4.0716 C.ar    
  24 C24           -7.9478     3.4394    -2.7910 C.ar    
  25 C25           -7.7983     4.3849    -1.7947 C.ar    
  26 Cl26          -6.0152     7.3982    -3.7371 Cl      
  27 H27            1.6307     4.0684     2.6662 H       
  28 H28            3.7182     2.7202     2.7295 H       
  29 H29            3.8758     0.7011     1.2914 H       
  30 H30            1.9740     0.0904    -0.1503 H       
  31 H31           -1.4480     2.4356    -0.2395 H       
  32 H32           -1.8791     5.7891     0.7226 H       
  33 H33           -4.0248     6.9935     0.7673 H       
  34 H34           -6.1063     3.3293     0.1069 H       
  35 H35           -3.9653     2.1170     0.0496 H       
  36 H36           -7.1543     7.5109    -1.2918 H       
  37 H37           -6.5583     5.1250    -5.3637 H       
  38 H38           -7.6137     2.9622    -4.8472 H       
  39 H39           -8.4109     2.4896    -2.5680 H       
  40 H40           -8.1443     4.1744    -0.7935 H       
@<TRIPOS>BOND
   1    1    2 ar
   2    1    6 ar
   3    1    7 1
   4    2    3 ar
   5    2   27 1
   6    3    4 ar
   7    3   28 1
   8    4    5 ar
   9    4   29 1
  10    5    6 ar
  11    5   30 1
  12    7    8 2
  13    7    9 am
  14    9   10 1
  15    9   31 1
  16   10   11 ar
  17   10   15 ar
  18   11   12 ar
  19   11   32 1
  20   12   13 ar
  21   12   33 1
  22   13   14 ar
  23   13   16 1
  24   14   15 ar
  25   14   34 1
  26   15   35 1
  27   16   17 2
  28   16   18 2
  29   16   19 am
  30   19   20 1
  31   19   36 1
  32   20   21 ar
  33   20   25 ar
  34   21   22 ar
  35   21   26 1
  36   22   23 ar
  37   22   37 1
  38   23   24 ar
  39   23   38 1
  40   24   25 ar
  41   24   39 1
  42   25   40 1

#	End of record

