#	Name: ASD04560173
#	Creating user name:	WinNT
#	Creation time:	15. 06. 2019 20:49

#	Modifying user name:	WinNT
#	Modification time:	15. 06. 2019 20:49

#	Program:	/corina/corina34_cracker 3.40 0067  02.08.2006

@<TRIPOS>MOLECULE
ASD04560173
  42   44    0    0    0
SMALL
NO_CHARGES


@<TRIPOS>ATOM
   1 C1            -0.0174     1.3753     0.0245 C.ar    
   2 C2             0.0009    -0.0041     0.0241 C.ar    
   3 C3             1.2065    -0.6830     0.0137 C.ar    
   4 C4             2.4008     0.0155     0.0036 C.ar    
   5 C5             2.3967     1.3950     0.0043 C.ar    
   6 C6             1.1839     2.0861     0.0143 C.ar    
   7 C7             1.1719     3.5642     0.0151 C.2     
   8 O8             2.2196     4.1806     0.0071 O.2     
   9 N9            -0.0008     4.2286     0.0248 N.am    
  10 C10           -0.0139     5.6234     0.1385 C.ar    
  11 C11           -0.9810     6.3662    -0.5259 C.ar    
  12 C12            0.9217     7.6428     1.0318 C.ar    
  13 C13            0.9368     6.2663     0.9205 C.ar    
  14 C14           -0.9924     7.7425    -0.4119 C.ar    
  15 C15           -0.0401     8.3819     0.3638 C.ar    
  16 F16           -0.0530     9.7284     0.4740 F       
  17 C17            1.2092    -2.8979    -1.7426 C.3     
  18 C18            1.2203    -4.3991    -1.8744 C.ar    
  19 C19            0.0284    -5.0974    -1.9243 C.ar    
  20 C20            0.0385    -6.4744    -2.0451 C.ar    
  21 C21            1.2407    -7.1531    -2.1164 C.ar    
  22 C22            2.4327    -6.4547    -2.0674 C.ar    
  23 C23            2.4224    -5.0773    -1.9509 C.ar    
  24 S24            1.2209    -2.4450     0.0139 S.o2    
  25 O25            2.4659    -2.7852     0.6083 O.2     
  26 O26           -0.0079    -2.8054     0.6299 O.2     
  27 H27           -0.9591     1.9040     0.0281 H       
  28 H28           -0.9278    -0.5553     0.0323 H       
  29 H29            3.3384    -0.5205    -0.0045 H       
  30 H30            3.3296     1.9390    -0.0028 H       
  31 H31           -0.8356     3.7399    -0.0470 H       
  32 H32           -1.7235     5.8679    -1.1316 H       
  33 H33            1.6606     8.1431     1.6401 H       
  34 H34            1.6871     5.6902     1.4417 H       
  35 H35           -1.7444     8.3205    -0.9285 H       
  36 H36            2.0916    -2.4838    -2.2305 H       
  37 H37            0.3118    -2.4984    -2.2149 H       
  38 H38           -0.9109    -4.5671    -1.8686 H       
  39 H39           -0.8927    -7.0200    -2.0835 H       
  40 H40            1.2487    -8.2290    -2.2101 H       
  41 H41            3.3719    -6.9850    -2.1227 H       
  42 H42            3.3537    -4.5317    -1.9126 H       
@<TRIPOS>BOND
   1    1    2 ar
   2    1    6 ar
   3    1   27 1
   4    2    3 ar
   5    2   28 1
   6    3    4 ar
   7    3   24 1
   8    4    5 ar
   9    4   29 1
  10    5    6 ar
  11    5   30 1
  12    6    7 1
  13    7    8 2
  14    7    9 am
  15    9   10 1
  16    9   31 1
  17   10   11 ar
  18   10   13 ar
  19   11   14 ar
  20   11   32 1
  21   12   13 ar
  22   12   15 ar
  23   12   33 1
  24   13   34 1
  25   14   15 ar
  26   14   35 1
  27   15   16 1
  28   17   18 1
  29   17   24 1
  30   17   36 1
  31   17   37 1
  32   18   19 ar
  33   18   23 ar
  34   19   20 ar
  35   19   38 1
  36   20   21 ar
  37   20   39 1
  38   21   22 ar
  39   21   40 1
  40   22   23 ar
  41   22   41 1
  42   23   42 1
  43   24   25 2
  44   24   26 2

#	End of record

