#	Name: ASD02030031
#	Creating user name:	WinNT
#	Creation time:	15. 06. 2019 20:14

#	Modifying user name:	WinNT
#	Modification time:	15. 06. 2019 20:14

#	Program:	/corina/corina34_cracker 3.40 0067  02.08.2006

@<TRIPOS>MOLECULE
ASD02030031
  44   43    0    0    0
SMALL
NO_CHARGES


@<TRIPOS>ATOM
   1 N1            -0.0178     1.4648     0.0101 N.4     
   2 C2             0.0021    -0.0041     0.0020 C.3     
   3 C3             0.7182    -0.4975    -1.2568 C.3     
   4 C4             0.7390    -2.0273    -1.2652 C.3     
   5 N5             1.4265    -2.5011    -2.4738 N.4     
   6 C6             1.4465    -3.9699    -2.4819 C.3     
   7 C7             2.1626    -4.4633    -3.7407 C.3     
   8 C8             2.1833    -5.9932    -3.7491 C.3     
   9 C9             2.8995    -6.4866    -5.0079 C.3     
  10 N10            2.9194    -7.9554    -5.0160 N.4     
  11 C11            3.6070    -8.4292    -6.2246 C.3     
  12 C12            3.6277    -9.9590    -6.2330 C.3     
  13 C13            4.3439   -10.4524    -7.4918 C.3     
  14 N14            4.3638   -11.9213    -7.4999 N.4     
  15 H15            0.9288     1.8140     0.0029 H       
  16 H16           -0.5059     1.7990    -0.8073 H       
  17 H17           -0.4901     1.7902     0.8402 H       
  18 H18            0.5293    -0.3651     0.8851 H       
  19 H19           -1.0205    -0.3814     0.0098 H       
  20 H20            0.1910    -0.1364    -2.1398 H       
  21 H21            1.7408    -0.1202    -1.2645 H       
  22 H22            1.2661    -2.3884    -0.3821 H       
  23 H23           -0.2836    -2.4046    -1.2575 H       
  24 H24            0.9385    -2.1668    -3.2913 H       
  25 H25            2.3731    -2.1518    -2.4810 H       
  26 H26            1.9736    -4.3310    -1.5988 H       
  27 H27            0.4239    -4.3472    -2.4742 H       
  28 H28            1.6354    -4.1023    -4.6238 H       
  29 H29            3.1852    -4.0860    -3.7484 H       
  30 H30            2.7105    -6.3542    -2.8661 H       
  31 H31            1.1608    -6.3705    -3.7414 H       
  32 H32            2.3723    -6.1255    -5.8910 H       
  33 H33            3.9221    -6.1093    -5.0157 H       
  34 H34            3.4074    -8.2897    -4.1986 H       
  35 H35            1.9728    -8.3047    -5.0088 H       
  36 H36            3.0798    -8.0681    -7.1077 H       
  37 H37            4.6296    -8.0519    -6.2324 H       
  38 H38            4.1549   -10.3201    -5.3500 H       
  39 H39            2.6051   -10.3363    -6.2253 H       
  40 H40            3.8167   -10.0914    -8.3749 H       
  41 H41            5.3665   -10.0751    -7.4996 H       
  42 H42            4.8361   -12.2467    -8.3301 H       
  43 H43            4.8518   -12.2555    -6.6825 H       
  44 H44            3.4172   -12.2705    -7.4927 H       
@<TRIPOS>BOND
   1    1    2 1
   2    1   15 1
   3    1   16 1
   4    1   17 1
   5    2    3 1
   6    2   18 1
   7    2   19 1
   8    3    4 1
   9    3   20 1
  10    3   21 1
  11    4    5 1
  12    4   22 1
  13    4   23 1
  14    5    6 1
  15    5   24 1
  16    5   25 1
  17    6    7 1
  18    6   26 1
  19    6   27 1
  20    7    8 1
  21    7   28 1
  22    7   29 1
  23    8    9 1
  24    8   30 1
  25    8   31 1
  26    9   10 1
  27    9   32 1
  28    9   33 1
  29   10   11 1
  30   10   34 1
  31   10   35 1
  32   11   12 1
  33   11   36 1
  34   11   37 1
  35   12   13 1
  36   12   38 1
  37   12   39 1
  38   13   14 1
  39   13   40 1
  40   13   41 1
  41   14   42 1
  42   14   43 1
  43   14   44 1

#	End of record

