#	Name: ASD03730864
#	Creating user name:	WinNT
#	Creation time:	15. 06. 2019 20:44

#	Modifying user name:	WinNT
#	Modification time:	15. 06. 2019 20:44

#	Program:	/corina/corina34_cracker 3.40 0067  02.08.2006

@<TRIPOS>MOLECULE
ASD03730864
  62   68    0    0    0
SMALL
NO_CHARGES


@<TRIPOS>ATOM
   1 C1             1.3184    -1.1517    -2.5294 C.2     
   2 C2             0.4427    -1.1209    -1.3389 C.ar    
   3 C3             0.6966    -0.2178    -0.3050 C.ar    
   4 C4            -0.1243    -0.1944     0.8032 C.ar    
   5 C5            -1.1974    -1.0637     0.8917 C.ar    
   6 C6            -1.4543    -1.9614    -0.1291 C.ar    
   7 C7            -0.6448    -1.9907    -1.2461 C.ar    
   8 O8             2.2333    -0.3577    -2.6317 O.2     
   9 N9             1.1058    -2.0634    -3.4989 N.am    
  10 C10            1.8653     0.7289    -0.3992 C.3     
  11 O11            0.1097    -0.5880     6.4473 O.3     
  12 C12            0.0649    -0.2418     7.8441 C.3     
  13 O13            1.3371     0.3893     8.0813 O.3     
  14 C14            1.7130     0.9178     6.8795 C.ar    
  15 C15            0.9586     0.3157     5.8751 C.ar    
  16 C16            2.6524     1.8804     6.5562 C.ar    
  17 C17            2.8526     2.2529     5.2304 C.ar    
  18 C18            2.0988     1.6385     4.2351 C.ar    
  19 C19            1.1571     0.6828     4.5547 C.ar    
  20 O20            3.7036     3.1799     4.7043 O.3     
  21 C21            2.5580     2.2237     2.9264 C.3     
  22 C22            3.8718     2.9254     3.2963 C.3     
  23 N23            1.9655     1.5057     0.8389 N.am    
  24 C24            2.7619     1.1722     1.8741 C.2     
  25 C25            1.5577     3.1788     2.3458 C.ar    
  26 C26            0.9668     4.3341     2.8065 C.ar    
  27 C27            0.0568     5.0107     2.0139 C.ar    
  28 C28           -0.2583     4.5235     0.7584 C.ar    
  29 C29            0.3302     3.3662     0.2929 C.ar    
  30 C30            1.2476     2.6788     1.0838 C.ar    
  31 O31            3.4989     0.2113     1.9420 O.2     
  32 C32            3.0399    -1.3331    -4.7560 C.ar    
  33 C33            1.8154    -1.9829    -4.7039 C.ar    
  34 C34            1.3005    -2.5547    -5.8657 C.ar    
  35 C35            2.0363    -2.4509    -7.0328 C.ar    
  36 C36            3.2547    -1.7851    -7.0083 C.ar    
  37 N37            3.7132    -1.2536    -5.8876 N.ar    
  38 O38            3.9837    -1.6783    -8.1485 O.3     
  39 C39            5.2284    -0.9820    -8.0599 C.3     
  40 H40            0.0709     0.5038     1.6037 H       
  41 H41           -1.8369    -1.0415     1.7617 H       
  42 H42           -2.2932    -2.6374    -0.0537 H       
  43 H43           -0.8495    -2.6884    -2.0446 H       
  44 H44            0.4614    -2.7755    -3.3622 H       
  45 H45            2.7831     0.1597    -0.5463 H       
  46 H46            1.7182     1.4051    -1.2414 H       
  47 H47           -0.7504     0.4546     8.0401 H       
  48 H48           -0.0389    -1.1368     8.4574 H       
  49 H49            3.2343     2.3459     7.3379 H       
  50 H50            0.5733     0.2193     3.7732 H       
  51 H51            3.9808     3.8591     2.7445 H       
  52 H52            4.7241     2.2690     3.1207 H       
  53 H53            1.2142     4.7126     3.7873 H       
  54 H54           -0.4061     5.9174     2.3745 H       
  55 H55           -0.9687     5.0516     0.1397 H       
  56 H56            0.0786     2.9917    -0.6884 H       
  57 H57            3.4442    -0.8832    -3.8613 H       
  58 H58            0.3499    -3.0671    -5.8552 H       
  59 H59            1.6678    -2.8827    -7.9515 H       
  60 H60            5.0497     0.0412    -7.7295 H       
  61 H61            5.8770    -1.4869    -7.3439 H       
  62 H62            5.7081    -0.9693    -9.0386 H       
@<TRIPOS>BOND
   1    1    2 1
   2    1    8 2
   3    1    9 am
   4    2    3 ar
   5    2    7 ar
   6    3    4 ar
   7    3   10 1
   8    4    5 ar
   9    4   40 1
  10    5    6 ar
  11    5   41 1
  12    6    7 ar
  13    6   42 1
  14    7   43 1
  15    9   33 1
  16    9   44 1
  17   10   23 1
  18   10   45 1
  19   10   46 1
  20   11   12 1
  21   11   15 1
  22   12   13 1
  23   12   47 1
  24   12   48 1
  25   13   14 1
  26   14   15 ar
  27   14   16 ar
  28   15   19 ar
  29   16   17 ar
  30   16   49 1
  31   17   18 ar
  32   17   20 1
  33   18   19 ar
  34   18   21 1
  35   19   50 1
  36   20   22 1
  37   21   22 1
  38   21   24 1
  39   21   25 1
  40   22   51 1
  41   22   52 1
  42   23   24 am
  43   23   30 1
  44   24   31 2
  45   25   26 ar
  46   25   30 ar
  47   26   27 ar
  48   26   53 1
  49   27   28 ar
  50   27   54 1
  51   28   29 ar
  52   28   55 1
  53   29   30 ar
  54   29   56 1
  55   32   33 ar
  56   32   37 ar
  57   32   57 1
  58   33   34 ar
  59   34   35 ar
  60   34   58 1
  61   35   36 ar
  62   35   59 1
  63   36   37 ar
  64   36   38 1
  65   38   39 1
  66   39   60 1
  67   39   61 1
  68   39   62 1

#	End of record

