#	Name: ASD01883903
#	Creating user name:	WinNT
#	Creation time:	15. 06. 2019 19:47

#	Modifying user name:	WinNT
#	Modification time:	15. 06. 2019 19:47

#	Program:	/corina/corina34_cracker 3.40 0067  02.08.2006

@<TRIPOS>MOLECULE
ASD01883903
  47   48    0    0    0
SMALL
NO_CHARGES


@<TRIPOS>ATOM
   1 C1             2.0810     2.0000    -0.3497 C.2     
   2 C2             1.4926     0.7458    -0.1152 C.2     
   3 C3             0.1056     0.6825     0.1183 C.2     
   4 C4            -0.6332     1.8159     0.1139 C.2     
   5 N5            -0.0661     3.0281    -0.1129 N.am    
   6 C6             1.2554     3.1520    -0.3363 C.2     
   7 C7            -0.9086     4.2266    -0.1085 C.3     
   8 C8            -0.9713     4.8007     1.3083 C.3     
   9 C9            -1.8512     6.0523     1.3129 C.3     
  10 C10           -3.2909     5.6650     0.9691 C.3     
  11 C11           -1.8139     6.6969     2.7000 C.3     
  12 O12            1.7400     4.2526    -0.5368 O.2     
  13 C13            3.4879     2.1128    -0.5914 C.1     
  14 N14            4.6040     2.2023    -0.7831 N.1     
  15 C15            2.3145    -0.4843    -0.1142 C.ar    
  16 C16            2.4626    -1.2256     1.0575 C.ar    
  17 C17            3.2347    -2.3777     1.0506 C.ar    
  18 C18            3.8576    -2.7897    -0.1219 C.ar    
  19 C19            3.7107    -2.0543    -1.2833 C.ar    
  20 C20            2.9396    -0.9100    -1.2880 C.ar    
  21 N21            3.3868    -3.1239     2.2222 N.pl3   
  22 C22            2.8833    -2.6409     3.4239 C.2     
  23 C23            3.3808    -1.3302     3.9768 C.3     
  24 C24            1.9692    -3.3302     4.0813 C.2     
  25 H25           -0.3685    -0.2706     0.3005 H       
  26 H26           -1.6962     1.7548     0.2943 H       
  27 H27           -0.4857     4.9705    -0.7836 H       
  28 H28           -1.9138     3.9653    -0.4395 H       
  29 H29           -1.3943     4.0567     1.9834 H       
  30 H30            0.0338     5.0619     1.6393 H       
  31 H31           -1.4790     6.7609     0.5729 H       
  32 H32           -3.6631     4.9564     1.7091 H       
  33 H33           -3.9177     6.5567     0.9724 H       
  34 H34           -3.3174     5.2058    -0.0191 H       
  35 H35           -0.7883     6.9729     2.9450 H       
  36 H36           -2.4408     7.5886     2.7033 H       
  37 H37           -2.1862     5.9884     3.4400 H       
  38 H38            1.9781    -0.9034     1.9674 H       
  39 H39            4.4584    -3.6872    -0.1255 H       
  40 H40            4.1973    -2.3791    -2.1911 H       
  41 H41            2.8271    -0.3385    -2.1975 H       
  42 H42            3.8439    -3.9791     2.1966 H       
  43 H43            2.7066    -0.5289     3.6743 H       
  44 H44            3.4155    -1.3846     5.0649 H       
  45 H45            4.3803    -1.1291     3.5911 H       
  46 H46            1.6127    -4.2694     3.6850 H       
  47 H47            1.5779    -2.9547     5.0153 H       
@<TRIPOS>BOND
   1    1    2 2
   2    1   13 1
   3    1    6 1
   4    2    3 1
   5    2   15 1
   6    3    4 2
   7    3   25 1
   8    4    5 1
   9    4   26 1
  10    5    7 1
  11    5    6 am
  12    6   12 2
  13    7    8 1
  14    7   27 1
  15    7   28 1
  16    8    9 1
  17    8   29 1
  18    8   30 1
  19    9   10 1
  20    9   11 1
  21    9   31 1
  22   10   32 1
  23   10   33 1
  24   10   34 1
  25   11   35 1
  26   11   36 1
  27   11   37 1
  28   13   14 3
  29   15   16 ar
  30   15   20 ar
  31   16   17 ar
  32   16   38 1
  33   17   18 ar
  34   17   21 1
  35   18   19 ar
  36   18   39 1
  37   19   20 ar
  38   19   40 1
  39   20   41 1
  40   21   22 1
  41   21   42 1
  42   22   23 1
  43   22   24 2
  44   23   43 1
  45   23   44 1
  46   23   45 1
  47   24   46 1
  48   24   47 1

#	End of record

