#	Name: ASD01870209
#	Creating user name:	WinNT
#	Creation time:	15. 06. 2019 19:38

#	Modifying user name:	WinNT
#	Modification time:	15. 06. 2019 19:38

#	Program:	/corina/corina34_cracker 3.40 0067  02.08.2006

@<TRIPOS>MOLECULE
ASD01870209
  55   60    0    0    0
SMALL
NO_CHARGES


@<TRIPOS>ATOM
   1 C1            -0.0168     1.3890     0.0097 C.ar    
   2 C2             0.0021    -0.0041     0.0020 C.ar    
   3 C3             1.1788    -0.6894    -0.0124 C.ar    
   4 C4             2.3941     0.0135    -0.0202 C.ar    
   5 C5             2.3756     1.4328    -0.0129 C.ar    
   6 C6             1.1407     2.1051     0.0025 C.ar    
   7 C7             3.6271    -0.6639    -0.0356 C.ar    
   8 C8             4.7900     0.0346    -0.0429 C.ar    
   9 C9             4.7884     1.4436    -0.0359 C.ar    
  10 C10            3.5864     2.1338    -0.0212 C.ar    
  11 C11            5.8881     2.4277    -0.0412 C.2     
  12 N12            5.3957     3.6783    -0.0304 N.am    
  13 C13            3.9303     3.6020    -0.0170 C.3     
  14 C14            6.1483     4.8475    -0.0312 C.ar    
  15 C15            6.5132     5.4384    -1.2318 C.ar    
  16 C16            7.2596     6.5990    -1.2328 C.ar    
  17 C17            7.6496     7.1811    -0.0375 C.ar    
  18 C18            7.2974     6.6098     1.1681 C.ar    
  19 C19            6.5374     5.4386     1.1893 C.ar    
  20 C20            3.6561    -2.1706    -0.0434 C.3     
  21 C21            3.5282    -2.6681    -1.4601 C.ar    
  22 C22            4.6544    -2.8751    -2.2312 C.ar    
  23 N23            4.5534    -3.3105    -3.4728 N.ar    
  24 C24            3.3793    -3.5646    -4.0257 C.ar    
  25 C25            2.2041    -3.3790    -3.3084 C.ar    
  26 C26            2.2769    -2.9287    -2.0019 C.ar    
  27 O27            7.0708     2.1472    -0.0534 O.2     
  28 C28            7.5951     7.0441     2.5834 C.3     
  29 C29            6.9369     6.0031     3.4995 C.3     
  30 C30            6.2812     5.0109     2.5698 C.2     
  31 O31            5.6524     4.0294     2.9056 O.2     
  32 O32            3.3217    -4.0106    -5.3058 O.3     
  33 C33            4.5647    -4.1807    -5.9900 C.3     
  34 H34           -0.9638     1.9083     0.0170 H       
  35 H35           -0.9306    -0.5486     0.0080 H       
  36 H36            1.1771    -1.7694    -0.0175 H       
  37 H37            1.1107     3.1847     0.0078 H       
  38 H38            5.7302    -0.4967    -0.0540 H       
  39 H39            3.5217     4.0852    -0.9045 H       
  40 H40            3.5385     4.0763     0.8827 H       
  41 H41            6.2130     4.9893    -2.1671 H       
  42 H42            7.5416     7.0557    -2.1700 H       
  43 H43            8.2342     8.0890    -0.0495 H       
  44 H44            4.5985    -2.5181     0.3800 H       
  45 H45            2.8272    -2.5530     0.5522 H       
  46 H46            5.6305    -2.6778    -1.8131 H       
  47 H47            1.2468    -3.5872    -3.7630 H       
  48 H48            1.3802    -2.7756    -1.4198 H       
  49 H49            8.6720     7.0628     2.7508 H       
  50 H50            7.1693     8.0299     2.7702 H       
  51 H51            7.6907     5.5090     4.1125 H       
  52 H52            6.1863     6.4772     4.1318 H       
  53 H53            5.0879    -3.2256    -6.0358 H       
  54 H54            5.1779    -4.9055    -5.4546 H       
  55 H55            4.3764    -4.5407    -7.0014 H       
@<TRIPOS>BOND
   1    1    2 ar
   2    1    6 ar
   3    1   34 1
   4    2    3 ar
   5    2   35 1
   6    3    4 ar
   7    3   36 1
   8    4    5 ar
   9    4    7 ar
  10    5    6 ar
  11    5   10 ar
  12    6   37 1
  13    7    8 ar
  14    7   20 1
  15    8    9 ar
  16    8   38 1
  17    9   10 ar
  18    9   11 1
  19   10   13 1
  20   11   12 am
  21   11   27 2
  22   12   13 1
  23   12   14 1
  24   13   39 1
  25   13   40 1
  26   14   15 ar
  27   14   19 ar
  28   15   16 ar
  29   15   41 1
  30   16   17 ar
  31   16   42 1
  32   17   18 ar
  33   17   43 1
  34   18   19 ar
  35   18   28 1
  36   19   30 1
  37   20   21 1
  38   20   44 1
  39   20   45 1
  40   21   22 ar
  41   21   26 ar
  42   22   23 ar
  43   22   46 1
  44   23   24 ar
  45   24   25 ar
  46   24   32 1
  47   25   26 ar
  48   25   47 1
  49   26   48 1
  50   28   29 1
  51   28   49 1
  52   28   50 1
  53   29   30 1
  54   29   51 1
  55   29   52 1
  56   30   31 2
  57   32   33 1
  58   33   53 1
  59   33   54 1
  60   33   55 1

#	End of record

