#	Name: ASD00061012
#	Creating user name:	WinNT
#	Creation time:	15. 06. 2019 18:29

#	Modifying user name:	WinNT
#	Modification time:	15. 06. 2019 18:29

#	Program:	/corina/corina34_cracker 3.40 0067  02.08.2006

@<TRIPOS>MOLECULE
ASD00061012
  43   45    0    0    0
SMALL
NO_CHARGES


@<TRIPOS>ATOM
   1 C1            -0.0167     1.3829     0.0096 C.ar    
   2 C2             0.0021    -0.0041     0.0020 C.ar    
   3 N3            -1.2099    -0.7082    -0.0137 N.am    
   4 C4            -2.1496    -0.3597    -0.9119 C.2     
   5 C5            -1.8553     0.6941    -1.9425 C.3     
   6 C6            -1.9891     2.0910    -1.3358 C.3     
   7 C7            -1.3320     2.1133     0.0457 C.3     
   8 C8             1.1718     2.0868     0.0021 C.ar    
   9 C9             2.3765     1.4077    -0.0025 C.ar    
  10 C10            2.3967     0.0248    -0.0002 C.ar    
  11 C11            1.2109    -0.6846     0.0024 C.ar    
  12 O12           -3.2367    -0.8970    -0.8894 O.2     
  13 N13           -0.4902     0.5131    -2.4424 N.am    
  14 C14           -0.2492    -0.3547    -3.4450 C.2     
  15 C15           -1.4489    -1.8033     0.9295 C.3     
  16 C16            1.1285    -0.5373    -3.9495 C.ar    
  17 C17            1.3814    -1.4352    -4.9877 C.ar    
  18 C18            2.6692    -1.6005    -5.4541 C.ar    
  19 C19            3.7088    -0.8789    -4.8948 C.ar    
  20 C20            3.4648     0.0128    -3.8654 C.ar    
  21 C21            2.1809     0.1918    -3.3936 C.ar    
  22 O22           -1.1645    -0.9872    -3.9345 O.2     
  23 C23           -2.0787    -1.2567     2.1848 C.2     
  24 O24           -2.3048    -0.0737     2.2815 O.2     
  25 O25           -2.3886    -2.0840     3.1953 O.3     
  26 H26           -2.5571     0.5930    -2.7704 H       
  27 H27           -1.4974     2.8168    -1.9835 H       
  28 H28           -3.0446     2.3459    -1.2403 H       
  29 H29           -1.9922     1.6320     0.7672 H       
  30 H30           -1.1628     3.1468     0.3482 H       
  31 H31            1.1603     3.1667    -0.0007 H       
  32 H32            3.3050     1.9593    -0.0081 H       
  33 H33            3.3400    -0.5010    -0.0001 H       
  34 H34            1.2252    -1.7645     0.0040 H       
  35 H35            0.2402     1.0179    -2.0518 H       
  36 H36           -2.1182    -2.5342     0.4757 H       
  37 H37           -0.5018    -2.2827     1.1773 H       
  38 H38            0.5709    -1.9996    -5.4247 H       
  39 H39            2.8663    -2.2950    -6.2574 H       
  40 H40            4.7152    -1.0126    -5.2631 H       
  41 H41            4.2807     0.5730    -3.4331 H       
  42 H42            1.9917     0.8883    -2.5902 H       
  43 H43           -2.7909    -1.6871     3.9800 H       
@<TRIPOS>BOND
   1    1    2 ar
   2    1    8 ar
   3    1    7 1
   4    2    3 1
   5    2   11 ar
   6    3    4 am
   7    3   15 1
   8    4    5 1
   9    4   12 2
  10    5    6 1
  11    5   13 1
  12    5   26 1
  13    6    7 1
  14    6   27 1
  15    6   28 1
  16    7   29 1
  17    7   30 1
  18    8    9 ar
  19    8   31 1
  20    9   10 ar
  21    9   32 1
  22   10   11 ar
  23   10   33 1
  24   11   34 1
  25   13   14 am
  26   13   35 1
  27   14   16 1
  28   14   22 2
  29   15   23 1
  30   15   36 1
  31   15   37 1
  32   16   17 ar
  33   16   21 ar
  34   17   18 ar
  35   17   38 1
  36   18   19 ar
  37   18   39 1
  38   19   20 ar
  39   19   40 1
  40   20   21 ar
  41   20   41 1
  42   21   42 1
  43   23   24 2
  44   23   25 1
  45   25   43 1

#	End of record

