#	Name: ASD03331036
#	Creating user name:	WinNT
#	Creation time:	15. 06. 2019 20:38

#	Modifying user name:	WinNT
#	Modification time:	15. 06. 2019 20:38

#	Program:	/corina/corina34_cracker 3.40 0067  02.08.2006

@<TRIPOS>MOLECULE
ASD03331036
  57   59    0    0    0
SMALL
NO_CHARGES


@<TRIPOS>ATOM
   1 N1            -0.1079     1.2903     0.5908 N.pl3   
   2 C2            -0.0922    -0.0684     0.5450 C.2     
   3 C3             1.1400    -0.9339     0.5898 C.3     
   4 N4             2.0124    -0.4747     1.6819 N.3     
   5 C5             2.9370     0.5629     1.2213 C.3     
   6 C6             2.2891     1.4347     0.1494 C.3     
   7 C7             1.0689     2.1524     0.7326 C.3     
   8 C8            -1.4096     1.6874     0.4929 C.2     
   9 N9            -2.1681     0.6197     0.4087 N.2     
  10 C10           -1.3856    -0.4812     0.4409 C.2     
  11 C11           -1.8489    -1.8785     0.3751 C.2     
  12 O12           -1.0432    -2.7888     0.4134 O.2     
  13 N13           -3.1655    -2.1478     0.2725 N.am    
  14 C14            2.7408    -1.6001     2.2824 C.3     
  15 C15           -3.5625    -4.0277    -1.2406 C.3     
  16 C16           -3.6261    -3.5370     0.2071 C.3     
  17 C17           -5.0683    -3.6203     0.7110 C.3     
  18 C18           -5.5982    -5.0412     0.5080 C.3     
  19 C19           -5.1097    -3.2684     2.1994 C.3     
  20 C20           -5.9394    -2.6347    -0.0704 C.3     
  21 O21           -4.4389    -3.2403    -2.0494 O.3     
  22 C22           -1.8865     3.0876     0.4842 C.ar    
  23 C23           -3.1541     3.3922    -0.0135 C.ar    
  24 C24           -3.5944     4.7011    -0.0188 C.ar    
  25 C25           -2.7777     5.7116     0.4699 C.ar    
  26 C26           -1.5189     5.4125     0.9641 C.ar    
  27 C27           -1.0726     4.1070     0.9788 C.ar    
  28 F28           -3.2119     6.9909     0.4630 F       
  29 F29           -4.8211     4.9985    -0.5006 F       
  30 H30            0.8512    -1.9702     0.7655 H       
  31 H31            1.6727    -0.8588    -0.3582 H       
  32 H32            3.2234     1.1884     2.0667 H       
  33 H33            3.8283     0.0906     0.8082 H       
  34 H34            3.0101     2.1728    -0.2019 H       
  35 H35            1.9763     0.8088    -0.6864 H       
  36 H36            0.9037     3.0859     0.1948 H       
  37 H37            1.2405     2.3640     1.7880 H       
  38 H38           -3.8081    -1.4218     0.2420 H       
  39 H39            3.3015    -2.1245     1.5086 H       
  40 H40            3.4299    -1.2247     3.0390 H       
  41 H41            2.0317    -2.2863     2.7454 H       
  42 H42           -2.5421    -3.9329    -1.6119 H       
  43 H43           -3.8692    -5.0728    -1.2838 H       
  44 H44           -2.9866    -4.1615     0.8309 H       
  45 H45           -4.9777    -5.7434     1.0647 H       
  46 H46           -6.6257    -5.1006     0.8670 H       
  47 H47           -5.5687    -5.2919    -0.5524 H       
  48 H48           -4.7322    -2.2562     2.3441 H       
  49 H49           -6.1372    -3.3278     2.5584 H       
  50 H50           -4.4892    -3.9706     2.7562 H       
  51 H51           -6.0592    -2.9885    -1.0944 H       
  52 H52           -6.9175    -2.5585     0.4045 H       
  53 H53           -5.4619    -1.6548    -0.0781 H       
  54 H54           -4.4496    -3.4963    -2.9819 H       
  55 H55           -3.7894     2.6061    -0.3940 H       
  56 H56           -0.8871     6.2023     1.3429 H       
  57 H57           -0.0925     3.8752     1.3686 H       
@<TRIPOS>BOND
   1    1    2 1
   2    1    7 1
   3    1    8 1
   4    2    3 1
   5    2   10 2
   6    3    4 1
   7    3   30 1
   8    3   31 1
   9    4    5 1
  10    4   14 1
  11    5    6 1
  12    5   32 1
  13    5   33 1
  14    6    7 1
  15    6   34 1
  16    6   35 1
  17    7   36 1
  18    7   37 1
  19    8    9 2
  20    8   22 1
  21    9   10 1
  22   10   11 1
  23   11   12 2
  24   11   13 am
  25   13   16 1
  26   13   38 1
  27   14   39 1
  28   14   40 1
  29   14   41 1
  30   15   21 1
  31   15   16 1
  32   15   42 1
  33   15   43 1
  34   16   17 1
  35   16   44 1
  36   17   18 1
  37   17   19 1
  38   17   20 1
  39   18   45 1
  40   18   46 1
  41   18   47 1
  42   19   48 1
  43   19   49 1
  44   19   50 1
  45   20   51 1
  46   20   52 1
  47   20   53 1
  48   21   54 1
  49   22   23 ar
  50   22   27 ar
  51   23   24 ar
  52   23   55 1
  53   24   25 ar
  54   24   29 1
  55   25   26 ar
  56   25   28 1
  57   26   27 ar
  58   26   56 1
  59   27   57 1

#	End of record

