#	Name: ASD06170006
#	Creating user name:	WinNT
#	Creation time:	15. 06. 2019 21:05

#	Modifying user name:	WinNT
#	Modification time:	15. 06. 2019 21:05

#	Program:	/corina/corina34_cracker 3.40 0067  02.08.2006

@<TRIPOS>MOLECULE
ASD06170006
  77   81    0    0    0
SMALL
NO_CHARGES


@<TRIPOS>ATOM
   1 C1            -0.1859    -0.4189    -2.8174 C.2     
   2 N2            -0.0529    -0.4401    -1.4764 N.am    
   3 O3             0.6950    -0.8688    -3.5223 O.2     
   4 O4            -1.2974     0.0960    -3.3754 O.3     
   5 C5            -1.0633     0.1992    -0.6299 C.3     
   6 N6             1.0695    -2.3440    -0.4610 N.pl3   
   7 N7             2.3372    -2.6212     0.0584 N.am    
   8 C8             3.1064    -1.5195    -0.0512 C.2     
   9 C9             2.2798    -0.4823    -0.6763 C.2     
  10 C10            1.0272    -1.0596    -0.9049 C.2     
  11 C11            2.7421    -3.8436     0.6043 C.ar    
  12 C12            1.9495    -4.4796     1.5511 C.ar    
  13 C13            2.3519    -5.6868     2.0879 C.ar    
  14 C14            3.5427    -6.2622     1.6839 C.ar    
  15 C15            4.3343    -5.6314     0.7418 C.ar    
  16 C16            3.9347    -4.4270     0.1966 C.ar    
  17 O17            4.2661    -1.4070     0.3020 O.2     
  18 C18           -0.0429    -3.2952    -0.5234 C.3     
  19 C19            2.6855     0.8862    -0.9970 C.2     
  20 N20            3.8996     1.3347    -0.6211 N.am    
  21 O21            1.9264     1.6199    -1.6034 O.2     
  22 C22            4.2305     2.6848    -0.7905 C.ar    
  23 C23            3.2466     3.6595    -0.6861 C.ar    
  24 C24            3.5743     4.9919    -0.8530 C.ar    
  25 C25            4.8879     5.3550    -1.1252 C.ar    
  26 C26            5.8692     4.3812    -1.2292 C.ar    
  27 C27            5.5432     3.0497    -1.0573 C.ar    
  28 O28            5.2107     6.6658    -1.2899 O.3     
  29 N29            5.8115     8.9309     2.1038 N.ar    
  30 C30            5.5961     7.6399     2.2014 C.ar    
  31 C31            5.3896     6.8452     1.0812 C.ar    
  32 C32            5.4087     7.4169    -0.1791 C.ar    
  33 C33            5.6416     8.8080    -0.2723 C.ar    
  34 C34            5.6749     9.4582    -1.5145 C.ar    
  35 C35            5.9009    10.7990    -1.5714 C.ar    
  36 C36            6.1016    11.5405    -0.4036 C.ar    
  37 C37            6.0749    10.9314     0.8306 C.ar    
  38 C38            5.8433     9.5494     0.9174 C.ar    
  39 O39            6.3262    12.8775    -0.4876 O.3     
  40 C40            6.3427    13.4516    -1.7961 C.3     
  41 F41            2.6180     5.9408    -0.7520 F       
  42 C42           -1.3723     0.0860    -4.8254 C.3     
  43 C43           -1.2888    -1.3558    -5.3305 C.3     
  44 C44           -2.6976     0.7067    -5.2719 C.3     
  45 C45           -0.2097     0.8965    -5.4018 C.3     
  46 H46           -1.8847    -0.4961    -0.4563 H       
  47 H47           -0.6150     0.4773     0.3240 H       
  48 H48           -1.4420     1.0920    -1.1274 H       
  49 H49            1.0197    -4.0304     1.8675 H       
  50 H50            1.7360    -6.1818     2.8241 H       
  51 H51            3.8553    -7.2061     2.1055 H       
  52 H52            5.2642    -6.0830     0.4290 H       
  53 H53            4.5510    -3.9372    -0.5427 H       
  54 H54            0.2449    -4.2238    -0.0305 H       
  55 H55           -0.9121    -2.8712    -0.0205 H       
  56 H56           -0.2894    -3.4982    -1.5656 H       
  57 H57            4.5442     0.7224    -0.2333 H       
  58 H58            2.2260     3.3765    -0.4749 H       
  59 H59            6.8899     4.6639    -1.4408 H       
  60 H60            6.3090     2.2921    -1.1345 H       
  61 H61            5.5793     7.1828     3.1798 H       
  62 H62            5.2151     5.7853     1.1931 H       
  63 H63            5.5219     8.8960    -2.4239 H       
  64 H64            5.9258    11.2958    -2.5300 H       
  65 H65            6.2312    11.5133     1.7269 H       
  66 H66            6.5315    14.5225    -1.7207 H       
  67 H67            7.1301    12.9847    -2.3878 H       
  68 H68            5.3792    13.2856    -2.2779 H       
  69 H69           -2.1171    -1.9333    -4.9199 H       
  70 H70           -1.3450    -1.3634    -6.4190 H       
  71 H71           -0.3446    -1.7981    -5.0124 H       
  72 H72           -2.7571     1.7339    -4.9121 H       
  73 H73           -2.7539     0.6992    -6.3604 H       
  74 H74           -3.5259     0.1293    -4.8613 H       
  75 H75            0.7344     0.4542    -5.0838 H       
  76 H76           -0.2660     0.8890    -6.4903 H       
  77 H77           -0.2692     1.9236    -5.0420 H       
@<TRIPOS>BOND
   1    1    2 am
   2    1    3 2
   3    1    4 1
   4    2    5 1
   5    2   10 1
   6    4   42 1
   7    5   46 1
   8    5   47 1
   9    5   48 1
  10    6    7 1
  11    6   10 1
  12    6   18 1
  13    7    8 am
  14    7   11 1
  15    8    9 1
  16    8   17 2
  17    9   10 2
  18    9   19 1
  19   11   12 ar
  20   11   16 ar
  21   12   13 ar
  22   12   49 1
  23   13   14 ar
  24   13   50 1
  25   14   15 ar
  26   14   51 1
  27   15   16 ar
  28   15   52 1
  29   16   53 1
  30   18   54 1
  31   18   55 1
  32   18   56 1
  33   19   20 am
  34   19   21 2
  35   20   22 1
  36   20   57 1
  37   22   23 ar
  38   22   27 ar
  39   23   24 ar
  40   23   58 1
  41   24   25 ar
  42   24   41 1
  43   25   26 ar
  44   25   28 1
  45   26   27 ar
  46   26   59 1
  47   27   60 1
  48   28   32 1
  49   29   30 ar
  50   29   38 ar
  51   30   31 ar
  52   30   61 1
  53   31   32 ar
  54   31   62 1
  55   32   33 ar
  56   33   34 ar
  57   33   38 ar
  58   34   35 ar
  59   34   63 1
  60   35   36 ar
  61   35   64 1
  62   36   37 ar
  63   36   39 1
  64   37   38 ar
  65   37   65 1
  66   39   40 1
  67   40   66 1
  68   40   67 1
  69   40   68 1
  70   42   43 1
  71   42   45 1
  72   42   44 1
  73   43   69 1
  74   43   70 1
  75   43   71 1
  76   44   72 1
  77   44   73 1
  78   44   74 1
  79   45   75 1
  80   45   76 1
  81   45   77 1

#	End of record

