#	Name: ASD01914750
#	Creating user name:	WinNT
#	Creation time:	15. 06. 2019 20:04

#	Modifying user name:	WinNT
#	Modification time:	15. 06. 2019 20:04

#	Program:	/corina/corina34_cracker 3.40 0067  02.08.2006

@<TRIPOS>MOLECULE
ASD01914750
  39   42    0    0    0
SMALL
NO_CHARGES


@<TRIPOS>ATOM
   1 N1            -0.1257     1.1780     0.7125 N.am    
   2 C2            -0.0032    -0.0133     0.0376 C.2     
   3 C3            -1.1645    -0.5328    -0.6891 C.2     
   4 C4            -2.3064     0.1814    -0.6648 C.2     
   5 N5            -2.3602     1.3670     0.0312 N.am    
   6 C6            -1.2953     1.8391     0.7014 C.2     
   7 C7             1.0915     1.4299     1.2971 C.2     
   8 C8             1.9061     0.4075     0.9701 C.2     
   9 N9             1.2244    -0.4569     0.2065 N.2     
  10 C10            3.3451     0.2607     1.3932 C.3     
  11 O11           -1.3894     2.8919     1.3026 O.2     
  12 C12           -3.5559     2.0976     0.0456 C.ar    
  13 O13            3.7206     1.3783     2.2006 O.3     
  14 C14            4.9965     1.4009     2.6679 C.ar    
  15 C15            5.4286     2.4563     3.4580 C.ar    
  16 C16            5.8675     0.3658     2.3603 C.ar    
  17 C17            7.1639     0.3909     2.8369 C.ar    
  18 C18            7.5935     1.4462     3.6202 C.ar    
  19 C19            6.7260     2.4766     3.9321 C.ar    
  20 C20           -4.4994     1.8663     1.0372 C.ar    
  21 C21           -5.6787     2.5890     1.0498 C.ar    
  22 C22           -5.9175     3.5434     0.0724 C.ar    
  23 C23           -4.9767     3.7737    -0.9167 C.ar    
  24 C24           -3.7956     3.0577    -0.9286 C.ar    
  25 F25           -6.5981     2.3647     2.0139 F       
  26 F26           -7.0696     4.2489     0.0853 F       
  27 H27           -1.1063    -1.4651    -1.2311 H       
  28 H28           -3.1789    -0.1763    -1.1915 H       
  29 H29            1.3473     2.2857     1.9042 H       
  30 H30            3.4631    -0.6583     1.9673 H       
  31 H31            3.9815     0.2211     0.5091 H       
  32 H32            4.7513     3.2614     3.7018 H       
  33 H33            5.5323    -0.4591     1.7492 H       
  34 H34            7.8424    -0.4147     2.5978 H       
  35 H35            8.6073     1.4638     3.9921 H       
  36 H36            7.0640     3.3000     4.5438 H       
  37 H37           -4.3131     1.1226     1.7979 H       
  38 H38           -5.1645     4.5171    -1.6772 H       
  39 H39           -3.0624     3.2383    -1.7008 H       
@<TRIPOS>BOND
   1    1    2 1
   2    1    7 1
   3    1    6 am
   4    2    3 1
   5    2    9 2
   6    3    4 2
   7    3   27 1
   8    4    5 1
   9    4   28 1
  10    5    6 am
  11    5   12 1
  12    6   11 2
  13    7    8 2
  14    7   29 1
  15    8    9 1
  16    8   10 1
  17   10   13 1
  18   10   30 1
  19   10   31 1
  20   12   20 ar
  21   12   24 ar
  22   13   14 1
  23   14   15 ar
  24   14   16 ar
  25   15   19 ar
  26   15   32 1
  27   16   17 ar
  28   16   33 1
  29   17   18 ar
  30   17   34 1
  31   18   19 ar
  32   18   35 1
  33   19   36 1
  34   20   21 ar
  35   20   37 1
  36   21   22 ar
  37   21   25 1
  38   22   23 ar
  39   22   26 1
  40   23   24 ar
  41   23   38 1
  42   24   39 1

#	End of record

