#	Name: ASD01911209
#	Creating user name:	WinNT
#	Creation time:	15. 06. 2019 19:57

#	Modifying user name:	WinNT
#	Modification time:	15. 06. 2019 19:57

#	Program:	/corina/corina34_cracker 3.40 0067  02.08.2006

@<TRIPOS>MOLECULE
ASD01911209
  51   53    0    0    0
SMALL
NO_CHARGES


@<TRIPOS>ATOM
   1 C1            -0.6072     1.5011     0.6375 C.ar    
   2 N2            -0.4794     0.1999     0.4974 N.ar    
   3 C3             0.5445    -0.3327    -0.1587 C.ar    
   4 C4             1.5239     0.4809    -0.7234 C.ar    
   5 C5             1.4148     1.8565    -0.5913 C.ar    
   6 C6             0.3297     2.3702     0.1011 C.ar    
   7 C7             0.6465    -1.8045    -0.2909 C.2     
   8 N8            -0.2979    -2.5971     0.2536 N.am    
   9 C9            -0.2520    -3.9802     0.0510 C.ar    
  10 C10           -1.4246    -4.7241     0.0609 C.ar    
  11 C11           -1.3763    -6.0898    -0.1400 C.ar    
  12 C12           -0.1613    -6.7167    -0.3509 C.ar    
  13 C13            1.0090    -5.9780    -0.3608 C.ar    
  14 C14            0.9661    -4.6117    -0.1663 C.ar    
  15 C15           -2.7485    -4.0420     0.2911 C.3     
  16 N16           -3.1990    -3.4170    -0.9550 N.am    
  17 O17            1.5816    -2.2974    -0.8905 O.2     
  18 Br18          -0.0993    -8.5866    -0.6255 Br      
  19 C19           -3.9635    -4.1127    -1.8198 C.2     
  20 C20           -4.4984    -3.4528    -3.0299 C.ar    
  21 C21           -3.6937    -2.5829    -3.7676 C.ar    
  22 C22           -4.1988    -1.9708    -4.8960 C.ar    
  23 C23           -5.5000    -2.2171    -5.2967 C.ar    
  24 C24           -6.3029    -3.0782    -4.5700 C.ar    
  25 C25           -5.8083    -3.7013    -3.4429 C.ar    
  26 O26           -4.2133    -5.2827    -1.6049 O.2     
  27 C27           -2.8185    -2.0357    -1.2610 C.3     
  28 C28           -7.7189    -3.3406    -5.0139 C.3     
  29 C29           -3.3315    -1.0313    -5.6937 C.3     
  30 H30           -1.4563     1.8982     1.1741 H       
  31 H31            2.3567     0.0463    -1.2562 H       
  32 H32            2.1587     2.5130    -1.0179 H       
  33 H33            0.2153     3.4374     0.2215 H       
  34 H34           -1.0093    -2.2083     0.7861 H       
  35 H35           -2.2879    -6.6688    -0.1320 H       
  36 H36            1.9562    -6.4702    -0.5250 H       
  37 H37            1.8797    -4.0356    -0.1745 H       
  38 H38           -3.4847    -4.7775     0.6155 H       
  39 H39           -2.6348    -3.2781     1.0603 H       
  40 H40           -2.6781    -2.3893    -3.4554 H       
  41 H41           -5.8908    -1.7348    -6.1805 H       
  42 H42           -6.4359    -4.3736    -2.8767 H       
  43 H43           -1.9232    -2.0347    -1.8827 H       
  44 H44           -3.6321    -1.5445    -1.7947 H       
  45 H45           -2.6172    -1.5003    -0.3331 H       
  46 H46           -7.7345    -4.1918    -5.6946 H       
  47 H47           -8.3377    -3.5598    -4.1438 H       
  48 H48           -8.1087    -2.4599    -5.5244 H       
  49 H49           -2.7963    -1.5928    -6.4595 H       
  50 H50           -3.9563    -0.2745    -6.1681 H       
  51 H51           -2.6147    -0.5471    -5.0305 H       
@<TRIPOS>BOND
   1    1    2 ar
   2    1    6 ar
   3    1   30 1
   4    2    3 ar
   5    3    4 ar
   6    3    7 1
   7    4    5 ar
   8    4   31 1
   9    5    6 ar
  10    5   32 1
  11    6   33 1
  12    7    8 am
  13    7   17 2
  14    8    9 1
  15    8   34 1
  16    9   10 ar
  17    9   14 ar
  18   10   11 ar
  19   10   15 1
  20   11   12 ar
  21   11   35 1
  22   12   13 ar
  23   12   18 1
  24   13   14 ar
  25   13   36 1
  26   14   37 1
  27   15   16 1
  28   15   38 1
  29   15   39 1
  30   16   19 am
  31   16   27 1
  32   19   20 1
  33   19   26 2
  34   20   21 ar
  35   20   25 ar
  36   21   22 ar
  37   21   40 1
  38   22   23 ar
  39   22   29 1
  40   23   24 ar
  41   23   41 1
  42   24   25 ar
  43   24   28 1
  44   25   42 1
  45   27   43 1
  46   27   44 1
  47   27   45 1
  48   28   46 1
  49   28   47 1
  50   28   48 1
  51   29   49 1
  52   29   50 1
  53   29   51 1

#	End of record

