#	Name: ASD01881110
#	Creating user name:	WinNT
#	Creation time:	15. 06. 2019 19:42

#	Modifying user name:	WinNT
#	Modification time:	15. 06. 2019 19:42

#	Program:	/corina/corina34_cracker 3.40 0067  02.08.2006

@<TRIPOS>MOLECULE
ASD01881110
  48   51    0    0    0
SMALL
NO_CHARGES


@<TRIPOS>ATOM
   1 N1            -0.0363     1.2572    -0.1567 N.ar    
   2 C2             0.0503    -0.0556    -0.2008 C.ar    
   3 N3             1.2006    -0.6830    -0.0542 N.ar    
   4 C4             2.3243    -0.0116     0.1449 C.ar    
   5 C5             2.2841     1.3704     0.1991 C.ar    
   6 C6             1.0489     2.0037     0.0399 C.ar    
   7 C7             3.5402     2.1720     0.4244 C.3     
   8 O8             4.2218     2.3489    -0.8190 O.3     
   9 C9             5.3808     3.0544    -0.7914 C.ar    
  10 C10            6.0952     3.2639    -1.9674 C.ar    
  11 C11            7.2670     3.9778    -1.9393 C.ar    
  12 C12            7.7504     4.4981    -0.7339 C.ar    
  13 C13            7.0290     4.2850     0.4456 C.ar    
  14 C14            5.8496     3.5714     0.4097 C.ar    
  15 C15            8.2591     4.3769    -3.0032 C.3     
  16 N16            9.3082     5.1411    -2.3188 N.am    
  17 C17            9.0104     5.2083    -1.0099 C.2     
  18 O18            9.6854     5.7754    -0.1725 O.2     
  19 C19            3.6310    -0.7437     0.3111 C.3     
  20 Cl20           7.6142     4.9229     1.9504 Cl      
  21 C21            0.9480     3.4825     0.0886 C.ar    
  22 C22            1.8730     4.2696    -0.5952 C.ar    
  23 C23            1.7742     5.6453    -0.5463 C.ar    
  24 C24            0.7601     6.2432     0.1800 C.ar    
  25 C25           -0.1604     5.4670     0.8610 C.ar    
  26 C26           -0.0754     4.0903     0.8137 C.ar    
  27 C27           10.1588     7.1582    -3.4092 C.3     
  28 C28           10.4861     5.7337    -2.9571 C.3     
  29 H29           -0.8467    -0.6354    -0.3613 H       
  30 H30            3.2802     3.1463     0.8381 H       
  31 H31            4.1888     1.6424     1.1222 H       
  32 H32            5.7278     2.8647    -2.9013 H       
  33 H33            5.2923     3.4071     1.3201 H       
  34 H34            8.6859     3.4890    -3.4696 H       
  35 H35            7.7726     4.9985    -3.7549 H       
  36 H36            4.0997    -0.8763    -0.6640 H       
  37 H37            4.2921    -0.1652     0.9563 H       
  38 H38            3.4463    -1.7191     0.7611 H       
  39 H39            2.6656     3.8039    -1.1620 H       
  40 H40            2.4904     6.2562    -1.0758 H       
  41 H41            0.6868     7.3201     0.2158 H       
  42 H42           -0.9500     5.9392     1.4267 H       
  43 H43           -0.7948     3.4853     1.3455 H       
  44 H44            9.3338     7.1330    -4.1211 H       
  45 H45            9.8741     7.7575    -2.5443 H       
  46 H46           11.0352     7.5991    -3.8841 H       
  47 H47           11.3111     5.7589    -2.2452 H       
  48 H48           10.7708     5.1344    -3.8220 H       
@<TRIPOS>BOND
   1    1    2 ar
   2    1    6 ar
   3    2    3 ar
   4    2   29 1
   5    3    4 ar
   6    4    5 ar
   7    4   19 1
   8    5    6 ar
   9    5    7 1
  10    6   21 1
  11    7    8 1
  12    7   30 1
  13    7   31 1
  14    8    9 1
  15    9   10 ar
  16    9   14 ar
  17   10   11 ar
  18   10   32 1
  19   11   12 ar
  20   11   15 1
  21   12   13 ar
  22   12   17 1
  23   13   14 ar
  24   13   20 1
  25   14   33 1
  26   15   16 1
  27   15   34 1
  28   15   35 1
  29   16   17 am
  30   16   28 1
  31   17   18 2
  32   19   36 1
  33   19   37 1
  34   19   38 1
  35   21   22 ar
  36   21   26 ar
  37   22   23 ar
  38   22   39 1
  39   23   24 ar
  40   23   40 1
  41   24   25 ar
  42   24   41 1
  43   25   26 ar
  44   25   42 1
  45   26   43 1
  46   27   28 1
  47   27   44 1
  48   27   45 1
  49   27   46 1
  50   28   47 1
  51   28   48 1

#	End of record

