#	Name: ASD01815600
#	Creating user name:	WinNT
#	Creation time:	15. 06. 2019 19:33

#	Modifying user name:	WinNT
#	Modification time:	15. 06. 2019 19:33

#	Program:	/corina/corina34_cracker 3.40 0067  02.08.2006

@<TRIPOS>MOLECULE
ASD01815600
  37   39    0    0    0
SMALL
NO_CHARGES


@<TRIPOS>ATOM
   1 C1             0.1038     1.4766     0.3853 C.ar    
   2 C2             0.0847     0.0904     0.3770 C.ar    
   3 C3             1.2532    -0.6304     0.2371 C.ar    
   4 C4             2.4703     0.0349     0.1017 C.ar    
   5 C5             2.4881     1.4401     0.1097 C.ar    
   6 C6             1.2975     2.1572     0.2526 C.ar    
   7 N7             3.6446    -0.6745    -0.0383 N.pl3   
   8 C8             4.8382    -0.0823    -0.1712 C.2     
   9 C9             4.9813     1.2905    -0.1778 C.2     
  10 C10            3.7815     2.1314    -0.0344 C.2     
  11 O11            3.8549     3.3478    -0.0340 O.2     
  12 C12            6.3092     1.9025    -0.3254 C.2     
  13 O13            7.2932     1.1985    -0.4431 O.2     
  14 O14            6.4361     3.2446    -0.3304 O.3     
  15 C15            3.5837    -2.1382    -0.0413 C.3     
  16 C16            3.4395    -2.6321    -1.4578 C.ar    
  17 C17            4.5585    -2.7767    -2.2562 C.ar    
  18 C18            4.4269    -3.2296    -3.5556 C.ar    
  19 C19            3.1751    -3.5382    -4.0568 C.ar    
  20 C20            2.0552    -3.3933    -3.2570 C.ar    
  21 C21            2.1887    -2.9457    -1.9563 C.ar    
  22 F22            1.3143     3.5080     0.2600 F       
  23 F23            1.2174    -1.9809     0.2320 F       
  24 C24            5.6470    -3.3868    -4.4261 C.3     
  25 F25            6.7862    -3.0157    -3.7038 F       
  26 F26            5.7641    -4.7216    -4.8283 F       
  27 F27            5.5233    -2.5689    -5.5544 F       
  28 Cl28           3.0090    -4.1066    -5.6886 Cl      
  29 H29           -0.8197     2.0265     0.4915 H       
  30 H30           -0.8551    -0.4313     0.4816 H       
  31 H31            5.7182    -0.6994    -0.2763 H       
  32 H32            7.3296     3.6007    -0.4302 H       
  33 H33            4.4990    -2.5409     0.3925 H       
  34 H34            2.7273    -2.4674     0.5472 H       
  35 H35            5.5358    -2.5354    -1.8649 H       
  36 H36            1.0776    -3.6338    -3.6478 H       
  37 H37            1.3147    -2.8325    -1.3320 H       
@<TRIPOS>BOND
   1    1    2 ar
   2    1    6 ar
   3    1   29 1
   4    2    3 ar
   5    2   30 1
   6    3    4 ar
   7    3   23 1
   8    4    5 ar
   9    4    7 1
  10    5    6 ar
  11    5   10 1
  12    6   22 1
  13    7    8 1
  14    7   15 1
  15    8    9 2
  16    8   31 1
  17    9   10 1
  18    9   12 1
  19   10   11 2
  20   12   13 2
  21   12   14 1
  22   14   32 1
  23   15   16 1
  24   15   33 1
  25   15   34 1
  26   16   17 ar
  27   16   21 ar
  28   17   18 ar
  29   17   35 1
  30   18   19 ar
  31   18   24 1
  32   19   20 ar
  33   19   28 1
  34   20   21 ar
  35   20   36 1
  36   21   37 1
  37   24   25 1
  38   24   26 1
  39   24   27 1

#	End of record

