#	Name: ASD02198586
#	Creating user name:	WinNT
#	Creation time:	15. 06. 2019 20:19

#	Modifying user name:	WinNT
#	Modification time:	15. 06. 2019 20:19

#	Program:	/corina/corina34_cracker 3.40 0067  02.08.2006

@<TRIPOS>MOLECULE
ASD02198586
  53   57    0    0    0
SMALL
NO_CHARGES


@<TRIPOS>ATOM
   1 C1            -0.4586     2.6902    -0.3538 C.2     
   2 C2            -0.5817     1.4039    -0.7811 C.2     
   3 N3            -1.8011     0.8325    -0.9132 N.pl3   
   4 N4            -2.8969     1.4442    -0.6529 N.2     
   5 C5            -2.9210     2.6915    -0.2310 C.2     
   6 C6            -1.6480     3.4021    -0.0487 C.2     
   7 C7            -1.8692    -0.4924    -1.3568 C.ar    
   8 C8            -2.7056    -2.1248    -2.9069 C.ar    
   9 C9            -2.0045    -3.1169    -2.2344 C.ar    
  10 C10           -1.2400    -2.7947    -1.1200 C.ar    
  11 C11           -1.1728    -1.4878    -0.6825 C.ar    
  12 C12           -4.2047     3.3625     0.0586 C.2     
  13 N13           -4.5619     3.9588     1.2352 N.pl3   
  14 N14           -5.8567     4.4690     1.0790 N.2     
  15 C15           -6.2723     4.1989    -0.1327 C.2     
  16 C16           -5.2649     3.5101    -0.8085 C.2     
  17 C17           -3.7742     4.0443     2.3902 C.ar    
  18 C18           -3.0509     2.9405     2.8224 C.ar    
  19 O19           -1.6150     4.5606     0.3406 O.2     
  20 C20           -3.7104     5.2348     3.1023 C.ar    
  21 C21           -2.9328     5.3159     4.2408 C.ar    
  22 C22           -2.2179     4.2134     4.6716 C.ar    
  23 C23           -2.2751     3.0280     3.9618 C.ar    
  24 C24           -2.6390    -0.8152    -2.4703 C.ar    
  25 F25           -3.3212     0.1507    -3.1237 F       
  26 O26            0.7632     3.2719    -0.2182 O.3     
  27 C27            1.9021     2.4726    -0.5439 C.3     
  28 N28           -2.0720    -4.4450    -2.6772 N.pl3   
  29 C29           -2.1094    -4.8567    -3.9726 C.2     
  30 N30           -2.1069    -5.5853    -1.8643 N.2     
  31 C31           -2.1686    -6.6404    -2.6360 C.2     
  32 C32           -2.1719    -6.2148    -3.9680 C.2     
  33 O33           -2.0889    -4.0577    -5.0698 O.3     
  34 C34           -2.2233    -4.6972    -6.3407 C.3     
  35 F35           -1.2015    -5.6396    -6.4989 F       
  36 F36           -3.4645    -5.3388    -6.4108 F       
  37 H37            0.3040     0.8329    -1.0177 H       
  38 H38           -3.2994    -2.3758    -3.7733 H       
  39 H39           -0.6951    -3.5672    -0.5978 H       
  40 H40           -0.5785    -1.2385     0.1841 H       
  41 H41           -7.2347     4.4678    -0.5424 H       
  42 H42           -5.3104     3.1518    -1.8263 H       
  43 H43           -3.0952     2.0144     2.2685 H       
  44 H44           -4.2680     6.0964     2.7660 H       
  45 H45           -2.8828     6.2415     4.7951 H       
  46 H46           -1.6102     4.2795     5.5620 H       
  47 H47           -1.7159     2.1686     4.3009 H       
  48 H48            1.9239     1.5924     0.0986 H       
  49 H49            1.8405     2.1601    -1.5864 H       
  50 H50            2.8105     3.0556    -0.3925 H       
  51 H51           -2.2074    -7.6663    -2.3008 H       
  52 H52           -2.2166    -6.8520    -4.8388 H       
  53 H53           -2.1549    -3.9508    -7.1321 H       
@<TRIPOS>BOND
   1    1    2 2
   2    1   26 1
   3    1    6 1
   4    2    3 1
   5    2   37 1
   6    3    4 1
   7    3    7 1
   8    4    5 2
   9    5    6 1
  10    5   12 1
  11    6   19 2
  12    7   24 ar
  13    7   11 ar
  14    8    9 ar
  15    8   24 ar
  16    8   38 1
  17    9   10 ar
  18    9   28 1
  19   10   11 ar
  20   10   39 1
  21   11   40 1
  22   12   13 1
  23   12   16 2
  24   13   14 1
  25   13   17 1
  26   14   15 2
  27   15   16 1
  28   15   41 1
  29   16   42 1
  30   17   20 ar
  31   17   18 ar
  32   18   23 ar
  33   18   43 1
  34   20   21 ar
  35   20   44 1
  36   21   22 ar
  37   21   45 1
  38   22   23 ar
  39   22   46 1
  40   23   47 1
  41   24   25 1
  42   26   27 1
  43   27   48 1
  44   27   49 1
  45   27   50 1
  46   28   29 1
  47   28   30 1
  48   29   33 1
  49   29   32 2
  50   30   31 2
  51   31   32 1
  52   31   51 1
  53   32   52 1
  54   33   34 1
  55   34   35 1
  56   34   36 1
  57   34   53 1

#	End of record

