#	Name: ASD02039416
#	Creating user name:	WinNT
#	Creation time:	15. 06. 2019 20:18

#	Modifying user name:	WinNT
#	Modification time:	15. 06. 2019 20:18

#	Program:	/corina/corina34_cracker 3.40 0067  02.08.2006

@<TRIPOS>MOLECULE
ASD02039416
  51   54    0    0    0
SMALL
NO_CHARGES


@<TRIPOS>ATOM
   1 C1            -0.3824     0.3580    -0.6213 C.ar    
   2 C2             0.1869    -0.8635    -0.9330 C.ar    
   3 C3             0.4940     1.5112    -0.2051 C.3     
   4 N4             1.0115     2.1865    -1.3977 N.am    
   5 C5             0.1988     3.1984    -2.0772 C.3     
   6 C6             2.2353     1.8769    -1.8697 C.2     
   7 C7             3.0063     0.7818    -1.2558 C.2     
   8 C8             4.1950     0.2834    -1.7025 C.2     
   9 N9             2.6661     0.0888    -0.1391 N.2     
  10 C10            3.5862    -0.8001     0.1013 C.2     
  11 N11            4.5508    -0.7068    -0.8506 N.pl3   
  12 O12            2.7033     2.5015    -2.8025 O.2     
  13 C13           -0.6100    -1.9267    -1.3162 C.ar    
  14 C14           -2.5600    -0.5394    -1.0865 C.ar    
  15 C15           -1.7504     0.5252    -0.6960 C.ar    
  16 C16           -4.0304    -0.3656    -1.1685 C.ar    
  17 C17           -4.6106     0.8261    -0.7379 C.ar    
  18 N18           -4.7823    -1.3438    -1.6563 N.ar    
  19 C19           -6.0919    -1.2289    -1.7465 C.ar    
  20 C20           -6.7335    -0.0764    -1.3330 C.ar    
  21 C21           -5.9840     0.9737    -0.8211 C.ar    
  22 C22            5.7590    -1.5306    -0.9399 C.3     
  23 C23           -1.9820    -1.7736    -1.3894 C.ar    
  24 C24            0.9217     4.5421    -2.2691 C.3     
  25 C25            0.2749     4.6013    -3.6630 C.3     
  26 C26            0.2045     3.0661    -3.6093 C.3     
  27 F27           -2.7604    -2.8123    -1.7643 F       
  28 C28           -6.6515     2.2440    -0.3608 C.3     
  29 F29           -8.0343     2.1372    -0.5447 F       
  30 F30           -6.3760     2.4507     0.9951 F       
  31 F31           -6.1640     3.3233    -1.1055 F       
  32 H32            1.2583    -0.9874    -0.8770 H       
  33 H33           -0.0899     2.2160     0.3870 H       
  34 H34            1.3266     1.1380     0.3913 H       
  35 H35           -0.7991     3.2967    -1.6498 H       
  36 H36            4.7465     0.6150    -2.5698 H       
  37 H37            3.5845    -1.4971     0.9263 H       
  38 H38           -0.1598    -2.8779    -1.5591 H       
  39 H39           -2.1919     1.4823    -0.4604 H       
  40 H40           -3.9970     1.6230    -0.3445 H       
  41 H41           -6.6718    -2.0461    -2.1494 H       
  42 H42           -7.8074     0.0077    -1.4113 H       
  43 H43            5.5518    -2.4154    -1.5418 H       
  44 H44            6.5585    -0.9538    -1.4050 H       
  45 H45            6.0656    -1.8354     0.0607 H       
  46 H46            0.5758     5.3244    -1.5936 H       
  47 H47            2.0078     4.4537    -2.2952 H       
  48 H48           -0.7027     5.0832    -3.6706 H       
  49 H49            0.9411     4.9810    -4.4377 H       
  50 H50            1.0945     2.5742    -4.0017 H       
  51 H51           -0.7204     2.6569    -4.0157 H       
@<TRIPOS>BOND
   1    1    2 ar
   2    1    3 1
   3    1   15 ar
   4    2   13 ar
   5    2   32 1
   6    3    4 1
   7    3   33 1
   8    3   34 1
   9    4    5 1
  10    4    6 am
  11    5   24 1
  12    5   26 1
  13    5   35 1
  14    6    7 1
  15    6   12 2
  16    7    8 2
  17    7    9 1
  18    8   11 1
  19    8   36 1
  20    9   10 2
  21   10   11 1
  22   10   37 1
  23   11   22 1
  24   13   23 ar
  25   13   38 1
  26   14   15 ar
  27   14   16 1
  28   14   23 ar
  29   15   39 1
  30   16   17 ar
  31   16   18 ar
  32   17   21 ar
  33   17   40 1
  34   18   19 ar
  35   19   20 ar
  36   19   41 1
  37   20   21 ar
  38   20   42 1
  39   21   28 1
  40   22   43 1
  41   22   44 1
  42   22   45 1
  43   23   27 1
  44   24   25 1
  45   24   46 1
  46   24   47 1
  47   25   26 1
  48   25   48 1
  49   25   49 1
  50   26   50 1
  51   26   51 1
  52   28   29 1
  53   28   30 1
  54   28   31 1

#	End of record

