#	Name: ASD01140595
#	Creating user name:	WinNT
#	Creation time:	15. 06. 2019 19:01

#	Modifying user name:	WinNT
#	Modification time:	15. 06. 2019 19:01

#	Program:	/corina/corina34_cracker 3.40 0067  02.08.2006

@<TRIPOS>MOLECULE
ASD01140595
  36   38    0    0    0
SMALL
NO_CHARGES


@<TRIPOS>ATOM
   1 C1            -0.0171     1.4076     0.0098 C.ar    
   2 C2             0.0021    -0.0041     0.0020 C.ar    
   3 C3             1.2487    -0.6359    -0.0133 C.ar    
   4 N4             2.3525     0.0838    -0.0195 N.ar    
   5 N5             2.3465     1.3658    -0.0125 N.ar    
   6 C6             1.2232     2.0739     0.0015 C.ar    
   7 C7            -1.2549    -0.7881     0.0103 C.ar    
   8 C8            -1.4478    -1.8115    -0.9173 C.ar    
   9 C9            -2.6207    -2.5381    -0.9047 C.ar    
  10 C10           -3.6044    -2.2530     0.0254 C.ar    
  11 C11           -3.4190    -1.2387     0.9478 C.ar    
  12 C12           -2.2476    -0.5095     0.9494 C.ar    
  13 C13            1.2747     3.5543     0.0085 C.ar    
  14 C14            2.2930     4.2161     0.6942 C.ar    
  15 C15            2.3356     5.5953     0.6970 C.ar    
  16 C16            1.3707     6.3214     0.0220 C.ar    
  17 C17            0.3582     5.6705    -0.6600 C.ar    
  18 C18            0.3085     4.2916    -0.6753 C.ar    
  19 C19           -1.2884     2.1561     0.0200 C.2     
  20 O20           -1.8067     2.4585     1.0762 O.2     
  21 O21           -1.8745     2.5042    -1.1423 O.3     
  22 C22           -3.1237     3.2395    -1.0564 C.3     
  23 H23            1.3073    -1.7142    -0.0196 H       
  24 H24           -0.6809    -2.0345    -1.6443 H       
  25 H25           -2.7713    -3.3309    -1.6225 H       
  26 H26           -4.5209    -2.8243     0.0312 H       
  27 H27           -4.1907    -1.0205     1.6712 H       
  28 H28           -2.1020     0.2789     1.6730 H       
  29 H29            3.0464     3.6504     1.2221 H       
  30 H30            3.1236     6.1090     1.2276 H       
  31 H31            1.4079     7.4008     0.0277 H       
  32 H32           -0.3922     6.2427    -1.1852 H       
  33 H33           -0.4797     3.7845    -1.2121 H       
  34 H34           -3.4875     3.4564    -2.0607 H       
  35 H35           -3.8621     2.6401    -0.5239 H       
  36 H36           -2.9590     4.1740    -0.5199 H       
@<TRIPOS>BOND
   1    1    2 ar
   2    1    6 ar
   3    1   19 1
   4    2    3 ar
   5    2    7 1
   6    3    4 ar
   7    3   23 1
   8    4    5 ar
   9    5    6 ar
  10    6   13 1
  11    7    8 ar
  12    7   12 ar
  13    8    9 ar
  14    8   24 1
  15    9   10 ar
  16    9   25 1
  17   10   11 ar
  18   10   26 1
  19   11   12 ar
  20   11   27 1
  21   12   28 1
  22   13   14 ar
  23   13   18 ar
  24   14   15 ar
  25   14   29 1
  26   15   16 ar
  27   15   30 1
  28   16   17 ar
  29   16   31 1
  30   17   18 ar
  31   17   32 1
  32   18   33 1
  33   19   20 2
  34   19   21 1
  35   21   22 1
  36   22   34 1
  37   22   35 1
  38   22   36 1

#	End of record

