#	Name: ASD01412067
#	Creating user name:	WinNT
#	Creation time:	15. 06. 2019 19:20

#	Modifying user name:	WinNT
#	Modification time:	15. 06. 2019 19:20

#	Program:	/corina/corina34_cracker 3.40 0067  02.08.2006

@<TRIPOS>MOLECULE
ASD01412067
  61   64    0    0    0
SMALL
NO_CHARGES


@<TRIPOS>ATOM
   1 C1            -0.2593     1.5790    -0.4901 C.ar    
   2 C2            -0.1647     0.1845    -0.5004 C.ar    
   3 C3            -1.2910    -0.5977    -0.3247 C.ar    
   4 C4            -2.5316     0.0015    -0.1357 C.ar    
   5 C5            -2.6245     1.4048    -0.1257 C.ar    
   6 C6            -1.4814     2.1884    -0.2982 C.ar    
   7 N7            -3.6610    -0.7710     0.0400 N.pl3   
   8 C8            -4.8783    -0.2445     0.2252 C.2     
   9 C9            -5.0932     1.1184     0.2536 C.2     
  10 C10           -3.9459     2.0236     0.0758 C.2     
  11 O11           -4.0839     3.2345     0.0934 O.2     
  12 C12           -6.4448     1.6573     0.4586 C.2     
  13 O13           -6.6422     2.9906     0.4844 O.3     
  14 O14           -7.3851     0.9007     0.6047 O.2     
  15 C15           -8.0035     3.4516     0.6910 C.3     
  16 C16           -8.0291     4.9584     0.6901 C.ar    
  17 C17           -8.2218     5.6455    -0.4935 C.ar    
  18 C18           -8.2453     7.0279    -0.4944 C.ar    
  19 C19           -8.0766     7.7227     0.6884 C.ar    
  20 C20           -7.8847     7.0353     1.8726 C.ar    
  21 C21           -7.8656     5.6533     1.8741 C.ar    
  22 C22           -3.5229    -2.2293     0.0226 C.3     
  23 C23           -3.6394    -2.7282    -1.3946 C.ar    
  24 C24           -2.5064    -3.1044    -2.0903 C.ar    
  25 C25           -2.6129    -3.5616    -3.3908 C.ar    
  26 C26           -3.8527    -3.6429    -3.9966 C.ar    
  27 C27           -4.9875    -3.2675    -3.3025 C.ar    
  28 C28           -4.8826    -2.8150    -1.9984 C.ar    
  29 F29           -5.9912    -2.4482    -1.3189 F       
  30 C30           -7.7003     7.7929     3.1622 C.3     
  31 O31            0.8571     2.3364    -0.6643 O.3     
  32 C32            0.6883     3.7552    -0.6426 C.3     
  33 O33            1.0438    -0.4071    -0.6850 O.3     
  34 C34            1.0735    -1.8358    -0.6852 C.3     
  35 C35           -3.9671    -4.1405    -5.4144 C.3     
  36 F36           -4.1386    -5.5289    -5.4090 F       
  37 F37           -5.0672    -3.5371    -6.0331 F       
  38 F38           -2.8015    -3.8174    -6.1175 F       
  39 H39           -1.2074    -1.6744    -0.3346 H       
  40 H40           -1.5554     3.2659    -0.2897 H       
  41 H41           -5.7198    -0.9086     0.3563 H       
  42 H42           -8.6396     3.0769    -0.1108 H       
  43 H43           -8.3706     3.0826     1.6487 H       
  44 H44           -8.3536     5.1026    -1.4178 H       
  45 H45           -8.3951     7.5649    -1.4194 H       
  46 H46           -8.0942     8.8026     0.6876 H       
  47 H47           -7.7158     5.1164     2.7991 H       
  48 H48           -2.5493    -2.5069     0.4266 H       
  49 H49           -4.3094    -2.6761     0.6309 H       
  50 H50           -1.5371    -3.0410    -1.6181 H       
  51 H51           -1.7267    -3.8552    -3.9339 H       
  52 H52           -5.9561    -3.3307    -3.7762 H       
  53 H53           -8.6716     7.9590     3.6281 H       
  54 H54           -7.0683     7.2146     3.8361 H       
  55 H55           -7.2277     8.7530     2.9552 H       
  56 H56            1.6538     4.2383    -0.7927 H       
  57 H57            0.0058     4.0521    -1.4390 H       
  58 H58            0.2766     4.0575     0.3203 H       
  59 H59            0.7091    -2.2069     0.2727 H       
  60 H60            0.4377    -2.2123    -1.4864 H       
  61 H61            2.0965    -2.1779    -0.8419 H       
@<TRIPOS>BOND
   1    1    2 ar
   2    1   31 1
   3    1    6 ar
   4    2    3 ar
   5    2   33 1
   6    3    4 ar
   7    3   39 1
   8    4    5 ar
   9    4    7 1
  10    5    6 ar
  11    5   10 1
  12    6   40 1
  13    7    8 1
  14    7   22 1
  15    8    9 2
  16    8   41 1
  17    9   10 1
  18    9   12 1
  19   10   11 2
  20   12   13 1
  21   12   14 2
  22   13   15 1
  23   15   16 1
  24   15   42 1
  25   15   43 1
  26   16   17 ar
  27   16   21 ar
  28   17   18 ar
  29   17   44 1
  30   18   19 ar
  31   18   45 1
  32   19   20 ar
  33   19   46 1
  34   20   21 ar
  35   20   30 1
  36   21   47 1
  37   22   23 1
  38   22   48 1
  39   22   49 1
  40   23   24 ar
  41   23   28 ar
  42   24   25 ar
  43   24   50 1
  44   25   26 ar
  45   25   51 1
  46   26   27 ar
  47   26   35 1
  48   27   28 ar
  49   27   52 1
  50   28   29 1
  51   30   53 1
  52   30   54 1
  53   30   55 1
  54   31   32 1
  55   32   56 1
  56   32   57 1
  57   32   58 1
  58   33   34 1
  59   34   59 1
  60   34   60 1
  61   34   61 1
  62   35   36 1
  63   35   37 1
  64   35   38 1

#	End of record

