#	Name: ASD01915240
#	Creating user name:	WinNT
#	Creation time:	15. 06. 2019 20:05

#	Modifying user name:	WinNT
#	Modification time:	15. 06. 2019 20:05

#	Program:	/corina/corina34_cracker 3.40 0067  02.08.2006

@<TRIPOS>MOLECULE
ASD01915240
  27   28    0    0    0
SMALL
NO_CHARGES


@<TRIPOS>ATOM
   1 C1            -0.0167     1.3909     0.0214 C.ar    
   2 C2             0.0034    -0.0052     0.0445 C.ar    
   3 C3            -1.1826    -0.7164     0.0728 C.ar    
   4 C4            -2.3943    -0.0502     0.0783 C.ar    
   5 C5            -2.4266     1.3464     0.0549 C.ar    
   6 C6            -1.2345     2.0679     0.0322 C.ar    
   7 F7            -1.1571    -2.0669     0.0946 F       
   8 C8             1.2520     2.1493    -0.0083 C.2     
   9 N9             2.4293     1.4934    -0.0131 N.am    
  10 O10            1.2332     3.3647    -0.0284 O.2     
  11 C11            3.6279     2.2074    -0.1264 C.ar    
  12 C12            3.6904     3.5314     0.2859 C.ar    
  13 C13            4.8747     4.2343     0.1736 C.ar    
  14 C14            5.9983     3.6214    -0.3488 C.ar    
  15 C15            5.9417     2.3014    -0.7615 C.ar    
  16 C16            4.7602     1.5903    -0.6469 C.ar    
  17 F17            4.7042     0.3017    -1.0491 F       
  18 Cl18           7.3552     1.5359    -1.4170 Cl      
  19 C19           -3.6820     2.0352     0.0602 C.1     
  20 N20           -4.6780     2.5816     0.0644 N.1     
  21 H21            0.9469    -0.5308     0.0399 H       
  22 H22           -3.3173    -0.6105     0.1005 H       
  23 H23           -1.2546     3.1475     0.0144 H       
  24 H24            2.4461     0.5264     0.0619 H       
  25 H25            2.8135     4.0120     0.6940 H       
  26 H26            4.9226     5.2644     0.4943 H       
  27 H27            6.9222     4.1739    -0.4354 H       
@<TRIPOS>BOND
   1    1    2 ar
   2    1    8 1
   3    1    6 ar
   4    2    3 ar
   5    2   21 1
   6    3    4 ar
   7    3    7 1
   8    4    5 ar
   9    4   22 1
  10    5    6 ar
  11    5   19 1
  12    6   23 1
  13    8    9 am
  14    8   10 2
  15    9   11 1
  16    9   24 1
  17   11   12 ar
  18   11   16 ar
  19   12   13 ar
  20   12   25 1
  21   13   14 ar
  22   13   26 1
  23   14   15 ar
  24   14   27 1
  25   15   16 ar
  26   15   18 1
  27   16   17 1
  28   19   20 3

#	End of record

