#	Name: ASD03331207
#	Creating user name:	WinNT
#	Creation time:	15. 06. 2019 20:38

#	Modifying user name:	WinNT
#	Modification time:	15. 06. 2019 20:38

#	Program:	/corina/corina34_cracker 3.40 0067  02.08.2006

@<TRIPOS>MOLECULE
ASD03331207
  61   64    0    0    0
SMALL
NO_CHARGES


@<TRIPOS>ATOM
   1 N1            -0.0459     1.4956     0.5698 N.am    
   2 C2             0.0019     0.1506     1.1632 C.3     
   3 C3             0.5966    -0.8151     0.1327 C.3     
   4 N4             1.8894    -0.2950    -0.3322 N.3     
   5 C5             1.7288     0.9911    -1.0237 C.3     
   6 C6             1.1805     2.0309    -0.0406 C.3     
   7 C7            -1.1849     2.2161     0.5803 C.2     
   8 O8            -2.2139     1.7207     0.9974 O.2     
   9 N9            -1.1831     3.4859     0.1284 N.am    
  10 C10           -2.3851     4.1963     0.0330 C.ar    
  11 C11           -2.4015     5.5681     0.2481 C.ar    
  12 C12           -3.5892     6.2664     0.1527 C.ar    
  13 C13           -4.7613     5.6010    -0.1566 C.ar    
  14 C14           -4.7483     4.2350    -0.3714 C.ar    
  15 C15           -3.5629     3.5318    -0.2826 C.ar    
  16 C16            2.5723    -1.2724    -1.1902 C.3     
  17 C17            3.7648    -0.6215    -1.8425 C.2     
  18 C18            3.7142     0.1612    -3.0797 C.2     
  19 C19            4.9229     0.6048    -3.4026 C.2     
  20 C20            5.8715     0.1067    -2.3352 C.3     
  21 C21            5.0050    -0.6737    -1.3721 C.2     
  22 C22            5.4629    -1.3818    -0.1231 C.3     
  23 C23            5.2812     1.4432    -4.6025 C.3     
  24 C24            6.9213    -0.7871    -2.9436 C.ar    
  25 C25            6.5453    -1.9262    -3.6310 C.ar    
  26 C26            8.2596    -0.4651    -2.8192 C.ar    
  27 C27            9.2227    -1.2851    -3.3774 C.ar    
  28 C28            8.8471    -2.4271    -4.0594 C.ar    
  29 C29            7.5081    -2.7460    -4.1890 C.ar    
  30 C30           10.6819    -0.9335    -3.2426 C.3     
  31 F31           11.1961    -1.5150    -2.0787 F       
  32 F32           11.3823    -1.4158    -4.3535 F       
  33 F33           10.8218     0.4566    -3.1706 F       
  34 H34            0.6285     0.1659     2.0549 H       
  35 H35           -1.0063    -0.1697     1.4260 H       
  36 H36            0.7419    -1.7929     0.5920 H       
  37 H37           -0.0837    -0.9080    -0.7138 H       
  38 H38            2.6951     1.3233    -1.4030 H       
  39 H39            1.0326     0.8731    -1.8541 H       
  40 H40            0.9515     2.9537    -0.5736 H       
  41 H41            1.9203     2.2269     0.7355 H       
  42 H42           -0.3488     3.9073    -0.1307 H       
  43 H43           -1.4865     6.0883     0.4900 H       
  44 H44           -3.6027     7.3332     0.3202 H       
  45 H45           -5.6889     6.1492    -0.2303 H       
  46 H46           -5.6653     3.7181    -0.6128 H       
  47 H47           -3.5526     2.4657    -0.4549 H       
  48 H48            2.9044    -2.1167    -0.5862 H       
  49 H49            1.8845    -1.6240    -1.9592 H       
  50 H50            2.8173     0.3509    -3.6506 H       
  51 H51            6.3396     0.9471    -1.8226 H       
  52 H52            5.4089    -0.6970     0.7233 H       
  53 H53            4.8196    -2.2417     0.0637 H       
  54 H54            6.4914    -1.7187    -0.2528 H       
  55 H55            4.3834     1.6424    -5.1877 H       
  56 H56            5.7151     2.3863    -4.2703 H       
  57 H57            6.0042     0.9073    -5.2174 H       
  58 H58            5.4993    -2.1757    -3.7317 H       
  59 H59            8.5530     0.4272    -2.2863 H       
  60 H60            9.5994    -3.0675    -4.4957 H       
  61 H61            7.2146    -3.6384    -4.7219 H       
@<TRIPOS>BOND
   1    1    2 1
   2    1    6 1
   3    1    7 am
   4    2    3 1
   5    2   34 1
   6    2   35 1
   7    3    4 1
   8    3   36 1
   9    3   37 1
  10    4    5 1
  11    4   16 1
  12    5    6 1
  13    5   38 1
  14    5   39 1
  15    6   40 1
  16    6   41 1
  17    7    8 2
  18    7    9 am
  19    9   10 1
  20    9   42 1
  21   10   11 ar
  22   10   15 ar
  23   11   12 ar
  24   11   43 1
  25   12   13 ar
  26   12   44 1
  27   13   14 ar
  28   13   45 1
  29   14   15 ar
  30   14   46 1
  31   15   47 1
  32   16   17 1
  33   16   48 1
  34   16   49 1
  35   17   18 1
  36   17   21 2
  37   18   19 2
  38   18   50 1
  39   19   20 1
  40   19   23 1
  41   20   21 1
  42   20   24 1
  43   20   51 1
  44   21   22 1
  45   22   52 1
  46   22   53 1
  47   22   54 1
  48   23   55 1
  49   23   56 1
  50   23   57 1
  51   24   25 ar
  52   24   26 ar
  53   25   29 ar
  54   25   58 1
  55   26   27 ar
  56   26   59 1
  57   27   28 ar
  58   27   30 1
  59   28   29 ar
  60   28   60 1
  61   29   61 1
  62   30   31 1
  63   30   32 1
  64   30   33 1

#	End of record

