#	Name: ASD01903211
#	Creating user name:	WinNT
#	Creation time:	15. 06. 2019 19:54

#	Modifying user name:	WinNT
#	Modification time:	15. 06. 2019 19:54

#	Program:	/corina/corina34_cracker 3.40 0067  02.08.2006

@<TRIPOS>MOLECULE
ASD01903211
  36   39    0    0    0
SMALL
NO_CHARGES


@<TRIPOS>ATOM
   1 S1             0.1217     1.9365    -0.0050 S.3     
   2 C2            -0.0625     0.1864     0.0639 C.2     
   3 N3             1.1092    -0.3707     0.0364 N.2     
   4 C4             2.1577     0.4376    -0.0342 C.2     
   5 C5             1.8728     1.7502    -0.0689 C.2     
   6 N6            -1.2710    -0.4905     0.1368 N.pl3   
   7 C7            -2.4588     0.2198     0.2800 C.ar    
   8 C8             3.5511    -0.0726    -0.0719 C.2     
   9 C9             3.9494    -1.4295     0.0220 C.2     
  10 N10            5.2621    -1.4703    -0.0515 N.2     
  11 N11            5.7381    -0.1613    -0.1924 N.pl3   
  12 C12            4.6799     0.6774    -0.2088 C.2     
  13 N13           -2.4217     1.5318     0.4545 N.ar    
  14 C14           -3.5246     2.2427     0.5939 C.ar    
  15 C15           -4.7653     1.6382     0.5628 C.ar    
  16 C16           -4.8479     0.2637     0.3818 C.ar    
  17 C17           -3.6750    -0.4541     0.2328 C.ar    
  18 C18            3.0466    -2.5960     0.1756 C.ar    
  19 C19            1.9088    -2.7097    -0.6213 C.ar    
  20 C20            1.0725    -3.7976    -0.4743 C.ar    
  21 C21            1.3618    -4.7741     0.4618 C.ar    
  22 C22            2.4896    -4.6665     1.2554 C.ar    
  23 C23            3.3359    -3.5856     1.1135 C.ar    
  24 H24            2.5931     2.5529    -0.1262 H       
  25 H25           -1.2880    -1.4591     0.0879 H       
  26 H26            6.6695     0.0987    -0.2690 H       
  27 H27            4.7216     1.7523    -0.3056 H       
  28 H28           -3.4558     3.3113     0.7345 H       
  29 H29           -5.6625     2.2281     0.6785 H       
  30 H30           -5.8065    -0.2329     0.3542 H       
  31 H31           -3.7026    -1.5242     0.0902 H       
  32 H32            1.6818    -1.9477    -1.3522 H       
  33 H33            0.1904    -3.8866    -1.0910 H       
  34 H34            0.7044    -5.6236     0.5737 H       
  35 H35            2.7104    -5.4317     1.9849 H       
  36 H36            4.2162    -3.5026     1.7336 H       
@<TRIPOS>BOND
   1    1    2 1
   2    1    5 1
   3    2    3 2
   4    2    6 1
   5    3    4 1
   6    4    5 2
   7    4    8 1
   8    5   24 1
   9    6    7 1
  10    6   25 1
  11    7   13 ar
  12    7   17 ar
  13    8    9 1
  14    8   12 2
  15    9   10 2
  16    9   18 1
  17   10   11 1
  18   11   12 1
  19   11   26 1
  20   12   27 1
  21   13   14 ar
  22   14   15 ar
  23   14   28 1
  24   15   16 ar
  25   15   29 1
  26   16   17 ar
  27   16   30 1
  28   17   31 1
  29   18   19 ar
  30   18   23 ar
  31   19   20 ar
  32   19   32 1
  33   20   21 ar
  34   20   33 1
  35   21   22 ar
  36   21   34 1
  37   22   23 ar
  38   22   35 1
  39   23   36 1

#	End of record

