#	Name: ASD03092965
#	Creating user name:	WinNT
#	Creation time:	15. 06. 2019 20:33

#	Modifying user name:	WinNT
#	Modification time:	15. 06. 2019 20:33

#	Program:	/corina/corina34_cracker 3.40 0067  02.08.2006

@<TRIPOS>MOLECULE
ASD03092965
  39   42    0    0    0
SMALL
NO_CHARGES


@<TRIPOS>ATOM
   1 C1             0.0767    -2.8118    -2.3985 C.3     
   2 C2             0.0548    -2.0139    -1.1202 C.ar    
   3 N3             0.0285    -0.6982    -1.1869 N.ar    
   4 C4             0.0082     0.0411    -0.0855 C.ar    
   5 Cl5           -0.0269     1.7735    -0.1903 Cl      
   6 C6             0.0149    -0.5860     1.1475 C.ar    
   7 C7             0.0430    -1.9804     1.1807 C.ar    
   8 N8             0.0508    -2.6567     2.3930 N.pl3   
   9 C9            -0.0340    -4.0343     2.4154 C.2     
  10 N10           -0.2176    -4.7737     1.3698 N.2     
  11 C11           -0.2790    -6.0914     1.5431 C.2     
  12 N12           -0.4616    -7.0818     0.6268 N.2     
  13 C13           -0.4962    -8.3318     0.9729 C.2     
  14 N14           -0.3533    -8.7321     2.2642 N.am    
  15 C15           -0.1678    -7.8145     3.2372 C.2     
  16 O16           -0.0383    -8.1574     4.4011 O.2     
  17 C17           -0.1277    -6.4535     2.8795 C.2     
  18 S18            0.0966    -4.9878     3.8259 S.3     
  19 C19           -0.3988   -10.0952     2.5850 C.ar    
  20 C20           -1.6109   -10.6969     2.8939 C.ar    
  21 C21           -2.8802    -9.8846     2.8846 C.3     
  22 C22           -1.6527   -12.0413     3.2094 C.ar    
  23 C23           -0.4891   -12.7879     3.2179 C.ar    
  24 C24            0.7206   -12.1923     2.9108 C.ar    
  25 C25            0.7688   -10.8491     2.5891 C.ar    
  26 Cl26           2.2866   -10.1031     2.1972 Cl      
  27 N27            0.0572    -2.6517     0.0328 N.ar    
  28 H28           -0.9455    -3.0208    -2.7138 H       
  29 H29            0.5867    -2.2409    -3.1744 H       
  30 H30            0.6047    -3.7507    -2.2318 H       
  31 H31           -0.0008    -0.0106     2.0613 H       
  32 H32            0.1159    -2.1612     3.2244 H       
  33 H33           -0.6439    -9.0804     0.2086 H       
  34 H34           -3.3254    -9.9176     1.8902 H       
  35 H35           -3.5810   -10.2972     3.6103 H       
  36 H36           -2.6522    -8.8514     3.1465 H       
  37 H37           -2.5957   -12.5096     3.4501 H       
  38 H38           -0.5249   -13.8386     3.4653 H       
  39 H39            1.6278   -12.7782     2.9183 H       
@<TRIPOS>BOND
   1    1    2 1
   2    1   28 1
   3    1   29 1
   4    1   30 1
   5    2   27 ar
   6    2    3 ar
   7    3    4 ar
   8    4    5 1
   9    4    6 ar
  10    6    7 ar
  11    6   31 1
  12    7    8 1
  13    7   27 ar
  14    8    9 1
  15    8   32 1
  16    9   18 1
  17    9   10 2
  18   10   11 1
  19   11   17 2
  20   11   12 1
  21   12   13 2
  22   13   14 1
  23   13   33 1
  24   14   15 am
  25   14   19 1
  26   15   16 2
  27   15   17 1
  28   17   18 1
  29   19   25 ar
  30   19   20 ar
  31   20   21 1
  32   20   22 ar
  33   21   34 1
  34   21   35 1
  35   21   36 1
  36   22   23 ar
  37   22   37 1
  38   23   24 ar
  39   23   38 1
  40   24   25 ar
  41   24   39 1
  42   25   26 1

#	End of record

