#	Name: ASD03320157
#	Creating user name:	WinNT
#	Creation time:	15. 06. 2019 20:36

#	Modifying user name:	WinNT
#	Modification time:	15. 06. 2019 20:36

#	Program:	/corina/corina34_cracker 3.40 0067  02.08.2006

@<TRIPOS>MOLECULE
ASD03320157
  44   46    0    0    0
SMALL
NO_CHARGES


@<TRIPOS>ATOM
   1 C1            -0.0181     1.4705     0.0148 C.2     
   2 C2             0.0014    -0.0045     0.0118 C.ar    
   3 C3             1.2205    -0.7002     0.0013 C.ar    
   4 C4             1.1911    -2.0690    -0.0012 C.ar    
   5 C5            -0.0388    -2.7267     0.0066 C.ar    
   6 N6            -1.1758    -2.0449     0.0161 N.ar    
   7 C7            -1.1918    -0.7281     0.0251 C.ar    
   8 O8             1.0268     2.0925     0.0082 O.2     
   9 N9            -1.1941     2.1288     0.0193 N.am    
  10 N10           -0.0728    -4.1113     0.0041 N.3     
  11 C11           -1.4619    -4.6057     0.0135 C.3     
  12 C12           -1.6307    -5.5181    -1.2196 C.3     
  13 C13           -0.1738    -5.9423    -1.5426 C.3     
  14 C14            0.6127    -4.6560    -1.1871 C.3     
  15 O15           -2.4297    -6.6586    -0.8986 O.3     
  16 C16           -1.2149     3.5226     0.1325 C.ar    
  17 C17           -2.1829     4.2609    -0.5361 C.ar    
  18 C18           -2.2008     5.6371    -0.4217 C.ar    
  19 C19           -1.2565     6.2801     0.3573 C.ar    
  20 C20           -0.2913     5.5480     1.0243 C.ar    
  21 C21           -0.2710     4.1711     0.9184 C.ar    
  22 C22           -1.2788     7.7820     0.4794 C.3     
  23 C23           -2.1582     8.1843     1.6650 C.3     
  24 F24           -3.4598     7.7136     1.4611 F       
  25 F25           -1.6400     7.6286     2.8397 F       
  26 F26            0.0228     8.2527     0.6832 F       
  27 F27           -1.7970     8.3377    -0.6953 F       
  28 Cl28          -2.1849     9.9812     1.8110 Cl      
  29 Br29           2.8026    -3.0584    -0.0158 Br      
  30 H30            2.1602    -0.1679    -0.0050 H       
  31 H31           -2.1360    -0.2040     0.0381 H       
  32 H32           -2.0262     1.6359    -0.0560 H       
  33 H33           -1.6466    -5.1753     0.9243 H       
  34 H34           -2.1546    -3.7665    -0.0485 H       
  35 H35           -2.0645    -4.9643    -2.0522 H       
  36 H36            0.1382    -6.7768    -0.9147 H       
  37 H37           -0.0638    -6.1880    -2.5988 H       
  38 H38            0.5666    -3.9433    -2.0105 H       
  39 H39            1.6490    -4.8979    -0.9512 H       
  40 H40           -2.5662    -7.2643    -1.6399 H       
  41 H41           -2.9205     3.7593    -1.1449 H       
  42 H42           -2.9531     6.2118    -0.9417 H       
  43 H43            0.4451     6.0532     1.6316 H       
  44 H44            0.4805     3.5996     1.4428 H       
@<TRIPOS>BOND
   1    1    2 1
   2    1    8 2
   3    1    9 am
   4    2    3 ar
   5    2    7 ar
   6    3    4 ar
   7    3   30 1
   8    4    5 ar
   9    4   29 1
  10    5    6 ar
  11    5   10 1
  12    6    7 ar
  13    7   31 1
  14    9   16 1
  15    9   32 1
  16   10   11 1
  17   10   14 1
  18   11   12 1
  19   11   33 1
  20   11   34 1
  21   12   13 1
  22   12   15 1
  23   12   35 1
  24   13   14 1
  25   13   36 1
  26   13   37 1
  27   14   38 1
  28   14   39 1
  29   15   40 1
  30   16   17 ar
  31   16   21 ar
  32   17   18 ar
  33   17   41 1
  34   18   19 ar
  35   18   42 1
  36   19   20 ar
  37   19   22 1
  38   20   21 ar
  39   20   43 1
  40   21   44 1
  41   22   23 1
  42   22   26 1
  43   22   27 1
  44   23   24 1
  45   23   25 1
  46   23   28 1

#	End of record

