#	Name: ASD07930520
#	Creating user name:	WinNT
#	Creation time:	15. 06. 2019 21:12

#	Modifying user name:	WinNT
#	Modification time:	15. 06. 2019 21:12

#	Program:	/corina/corina34_cracker 3.40 0067  02.08.2006

@<TRIPOS>MOLECULE
ASD07930520
  50   52    0    0    0
SMALL
NO_CHARGES


@<TRIPOS>ATOM
   1 C1            -0.0336     1.4578     0.0421 C.3     
   2 N2             0.7957    -0.4140    -2.1303 N.2     
   3 N3            -0.8902    -1.7838    -1.2685 N.pl3   
   4 C4            -0.9149    -2.8273    -0.2382 C.3     
   5 C5            -1.2299    -2.1886     1.1215 C.3     
   6 S6             0.0065    -0.8916     1.4433 S.o2    
   7 N7            -0.0136    -0.0070     0.0313 N.am    
   8 C8            -0.0109    -0.7264    -1.1553 C.2     
   9 C9             0.4500    -3.5158    -0.1754 C.3     
  10 C10           -1.9765    -3.8424    -0.5754 C.ar    
  11 C11           -2.8069    -3.6379    -1.6601 C.ar    
  12 C12           -3.7855    -4.5729    -1.9714 C.ar    
  13 C13           -3.9277    -5.7126    -1.1914 C.ar    
  14 C14           -3.0945    -5.9143    -0.1059 C.ar    
  15 C15           -2.1147    -4.9815     0.1989 C.ar    
  16 O16           -0.4572     0.0116     2.4376 O.2     
  17 O17            1.3143    -1.4444     1.5003 O.2     
  18 F18           -1.3013    -5.1793     1.2593 F       
  19 N19           -4.6276    -4.3663    -3.0700 N.am    
  20 C20           -5.0479    -5.4158    -3.8037 C.2     
  21 O21           -4.6192    -6.5301    -3.5723 O.2     
  22 C22           -6.0274    -5.2129    -4.8871 C.ar    
  23 C23           -6.5169    -3.9313    -5.1581 C.ar    
  24 C24           -7.4275    -3.7457    -6.1659 C.ar    
  25 C25           -7.8653    -4.8323    -6.9196 C.ar    
  26 C26           -7.3795    -6.1101    -6.6520 C.ar    
  27 S27           -9.0362    -4.5900    -8.2138 S.3     
  28 C28           -6.4644    -6.3009    -5.6493 C.ar    
  29 F29           -3.2320    -7.0226     0.6543 F       
  30 C30           -9.2720    -6.2648    -8.8696 C.3     
  31 H31            0.9890     1.8352     0.0391 H       
  32 H32           -0.5574     1.8205    -0.8422 H       
  33 H33           -0.5473     1.8075     0.9377 H       
  34 H34            1.4076     0.3324    -2.0333 H       
  35 H35           -1.4881    -1.8390    -2.0303 H       
  36 H36           -2.2268    -1.7484     1.0986 H       
  37 H37           -1.1799    -2.9460     1.9037 H       
  38 H38            1.2166    -2.7810     0.0705 H       
  39 H39            0.4310    -4.2911     0.5905 H       
  40 H40            0.6749    -3.9657    -1.1424 H       
  41 H41           -2.6954    -2.7507    -2.2658 H       
  42 H42           -4.6884    -6.4406    -1.4317 H       
  43 H43           -4.9088    -3.4677    -3.3033 H       
  44 H44           -6.1781    -3.0885    -4.5738 H       
  45 H45           -7.8061    -2.7562    -6.3754 H       
  46 H46           -7.7207    -6.9507    -7.2381 H       
  47 H47           -6.0845    -7.2911    -5.4454 H       
  48 H48           -9.9893    -6.2361    -9.6898 H       
  49 H49           -8.3194    -6.6500    -9.2333 H       
  50 H50           -9.6490    -6.9145    -8.0798 H       
@<TRIPOS>BOND
   1    1    7 1
   2    1   31 1
   3    1   32 1
   4    1   33 1
   5    2    8 2
   6    2   34 1
   7    3    4 1
   8    3    8 1
   9    3   35 1
  10    4    5 1
  11    4    9 1
  12    4   10 1
  13    5    6 1
  14    5   36 1
  15    5   37 1
  16    6    7 am
  17    6   16 2
  18    6   17 2
  19    7    8 1
  20    9   38 1
  21    9   39 1
  22    9   40 1
  23   10   11 ar
  24   10   15 ar
  25   11   12 ar
  26   11   41 1
  27   12   13 ar
  28   12   19 1
  29   13   14 ar
  30   13   42 1
  31   14   15 ar
  32   14   29 1
  33   15   18 1
  34   19   20 am
  35   19   43 1
  36   20   21 2
  37   20   22 1
  38   22   28 ar
  39   22   23 ar
  40   23   24 ar
  41   23   44 1
  42   24   25 ar
  43   24   45 1
  44   25   26 ar
  45   25   27 1
  46   26   28 ar
  47   26   46 1
  48   27   30 1
  49   28   47 1
  50   30   48 1
  51   30   49 1
  52   30   50 1

#	End of record

