#	Name: ASD02500001
#	Creating user name:	WinNT
#	Creation time:	15. 06. 2019 20:22

#	Modifying user name:	WinNT
#	Modification time:	15. 06. 2019 20:22

#	Program:	/corina/corina34_cracker 3.40 0067  02.08.2006

@<TRIPOS>MOLECULE
ASD02500001
  34   33    0    0    0
SMALL
NO_CHARGES


@<TRIPOS>ATOM
   1 C1            -0.0184     1.5028     0.0103 C.3     
   2 C2            -1.2926    -0.7753     0.0102 C.3     
   3 O3            -1.0393    -2.1352    -0.3482 O.3     
   4 C4            -1.9085    -0.7230     1.4098 C.3     
   5 O5            -0.9579    -1.1953     2.3665 O.3     
   6 C6            -3.1563    -1.6074     1.4513 C.3     
   7 O7            -4.1069    -1.1351     0.4946 O.3     
   8 C8            -3.7722    -1.5551     2.8509 C.3     
   9 C9             0.0021    -0.0041     0.0020 C.2     
  10 O10            1.0559    -0.5936    -0.0112 O.2     
  11 P11            1.6776     3.5677     0.0052 P.3     
  12 O12            1.0169     4.2193     1.1581 O.2     
  13 O13            1.3223     1.9974     0.0002 O.3     
  14 O14            1.1573     4.2401    -1.3620 O.3     
  15 O15            3.2721     3.7567     0.1233 O.3     
  16 P16           -5.7508    -2.6762     4.2540 P.3     
  17 O17           -6.2862    -1.3700     4.6986 O.2     
  18 O18           -4.8679    -2.4695     2.9236 O.3     
  19 O19           -4.8303    -3.3027     5.4169 O.3     
  20 O20           -6.9715    -3.6772     3.9379 O.3     
  21 H21           -0.5455     1.8639    -0.8728 H       
  22 H22           -0.5286     1.8543     0.9071 H       
  23 H23           -1.9835    -0.3330    -0.7075 H       
  24 H24           -0.4310    -2.5924     0.2485 H       
  25 H25           -2.1834     0.3046     1.6476 H       
  26 H26           -0.6677    -2.1054     2.2163 H       
  27 H27           -2.8814    -2.6350     1.2135 H       
  28 H28           -4.3972    -0.2249     0.6448 H       
  29 H29           -3.0195    -1.8305     3.5896 H       
  30 H30           -4.1278    -0.5449     3.0538 H       
  31 H31            1.5494     3.8613    -2.1607 H       
  32 H32            3.5591     4.6801     0.1322 H       
  33 H33           -4.4450    -4.1611     5.1939 H       
  34 H34           -7.5467    -3.8478     4.6963 H       
@<TRIPOS>BOND
   1    1    9 1
   2    1   13 1
   3    1   21 1
   4    1   22 1
   5    2    3 1
   6    2    4 1
   7    2    9 1
   8    2   23 1
   9    3   24 1
  10    4    5 1
  11    4    6 1
  12    4   25 1
  13    5   26 1
  14    6    7 1
  15    6    8 1
  16    6   27 1
  17    7   28 1
  18    8   18 1
  19    8   29 1
  20    8   30 1
  21    9   10 2
  22   11   12 2
  23   11   13 1
  24   11   14 1
  25   11   15 1
  26   14   31 1
  27   15   32 1
  28   16   17 2
  29   16   18 1
  30   16   19 1
  31   16   20 1
  32   19   33 1
  33   20   34 1

#	End of record

