#	Name: ASD07930827
#	Creating user name:	WinNT
#	Creation time:	15. 06. 2019 21:13

#	Modifying user name:	WinNT
#	Modification time:	15. 06. 2019 21:13

#	Program:	/corina/corina34_cracker 3.40 0067  02.08.2006

@<TRIPOS>MOLECULE
ASD07930827
  33   35    0    0    0
SMALL
NO_CHARGES


@<TRIPOS>ATOM
   1 S1            -0.0218     1.7566     0.0117 S.3     
   2 C2             0.0021    -0.0041     0.0020 C.2     
   3 N3             1.0067    -0.6801    -0.4023 N.2     
   4 C4             2.2788    -0.2480    -0.9298 C.3     
   5 C5             2.4018     1.2696    -1.1298 C.3     
   6 C6             1.7642     2.0612    -0.0037 C.3     
   7 O7             1.6798     0.2587    -3.1728 O.3     
   8 C8             2.3747    -0.7374    -2.4040 C.3     
   9 C9             1.6874     1.5096    -2.4693 C.3     
  10 N10           -1.1092    -0.6801     0.4498 N.pl3   
  11 C11            2.4451     2.5606    -3.2830 C.3     
  12 F12            1.7276     2.8552    -4.4474 F       
  13 C13            3.4157    -0.7905    -0.1027 C.ar    
  14 C14            4.7245    -0.5024    -0.4518 C.ar    
  15 C15            5.7689    -1.0005     0.3077 C.ar    
  16 C16            5.5042    -1.7865     1.4159 C.ar    
  17 C17            4.1943    -2.0737     1.7636 C.ar    
  18 C18            3.1516    -1.5705     1.0070 C.ar    
  19 F19            6.5227    -2.2737     2.1578 F       
  20 F20            4.9819     0.2644    -1.5339 F       
  21 Br21           3.8318    -3.1478     3.2771 Br      
  22 H22            3.4526     1.5441    -1.2228 H       
  23 H23            1.9502     3.1243    -0.1561 H       
  24 H24            2.1942     1.7497     0.9482 H       
  25 H25            3.4173    -0.7975    -2.7161 H       
  26 H26            1.8892    -1.7072    -2.5136 H       
  27 H27            0.6646     1.8412    -2.2904 H       
  28 H28           -1.8839    -0.1868     0.7619 H       
  29 H29           -1.1182    -1.6500     0.4533 H       
  30 H30            2.5605     3.4668    -2.6883 H       
  31 H31            3.4284     2.1737    -3.5503 H       
  32 H32            6.7897    -0.7764     0.0356 H       
  33 H33            2.1305    -1.7907     1.2813 H       
@<TRIPOS>BOND
   1    1    2 1
   2    1    6 1
   3    2    3 2
   4    2   10 1
   5    3    4 1
   6    4    8 1
   7    4   13 1
   8    4    5 1
   9    5    6 1
  10    5    9 1
  11    5   22 1
  12    6   23 1
  13    6   24 1
  14    7    8 1
  15    7    9 1
  16    8   25 1
  17    8   26 1
  18    9   11 1
  19    9   27 1
  20   10   28 1
  21   10   29 1
  22   11   12 1
  23   11   30 1
  24   11   31 1
  25   13   14 ar
  26   13   18 ar
  27   14   15 ar
  28   14   20 1
  29   15   16 ar
  30   15   32 1
  31   16   17 ar
  32   16   19 1
  33   17   18 ar
  34   17   21 1
  35   18   33 1

#	End of record

