#	Name: ASD03130010
#	Creating user name:	WinNT
#	Creation time:	15. 06. 2019 20:33

#	Modifying user name:	WinNT
#	Modification time:	15. 06. 2019 20:33

#	Program:	/corina/corina34_cracker 3.40 0067  02.08.2006

@<TRIPOS>MOLECULE
ASD03130010
 368  369    0    0    0
SMALL
NO_CHARGES


@<TRIPOS>ATOM
   1 C1           -29.9812   -24.1050    18.5995 C.2     
   2 O2           -29.5379   -23.2871    19.3699 O.2     
   3 C3           -31.4283   -24.0417    18.1836 C.3     
   4 C4           -32.1082   -22.8616    18.8807 C.3     
   5 C5           -33.5774   -22.7973    18.4585 C.3     
   6 C6           -34.2572   -21.6172    19.1556 C.3     
   7 C7           -35.7264   -21.5529    18.7334 C.3     
   8 C8           -36.4063   -20.3728    19.4305 C.3     
   9 C9           -37.8754   -20.3086    19.0082 C.3     
  10 C10          -38.5553   -19.1284    19.7053 C.3     
  11 C11          -40.0245   -19.0642    19.2831 C.3     
  12 C12          -40.7043   -17.8840    19.9802 C.3     
  13 C13          -42.1735   -17.8198    19.5580 C.3     
  14 C14          -42.8534   -16.6397    20.2551 C.3     
  15 C15          -44.3226   -16.5754    19.8328 C.3     
  16 C16          -45.0024   -15.3953    20.5299 C.3     
  17 C17          -46.4716   -15.3311    20.1077 C.3     
  18 N18           30.8381   -41.3711    40.8520 N.am    
  19 C19          -17.2371   -35.6442    18.7840 C.3     
  20 C20          -16.4499   -34.3326    18.7564 C.3     
  21 C21          -15.0910   -34.5750    18.1516 C.2     
  22 N22          -17.1736   -33.3455    17.9513 N.am    
  23 O23          -14.8690   -34.2434    17.0063 O.2     
  24 C24          -18.5613   -35.4289    19.5195 C.3     
  25 C25          -17.5181   -36.1006    17.3509 C.3     
  26 C26          -11.9869   -34.0021    18.6014 C.3     
  27 C27          -12.7691   -35.2902    18.3375 C.3     
  28 C28          -12.0688   -36.4480    19.0009 C.2     
  29 N29          -14.1224   -35.1603    18.8835 N.am    
  30 O30          -12.6435   -37.1004    19.8465 O.2     
  31 C31          -12.6271   -32.8487    17.8263 C.3     
  32 C32          -11.8566   -31.5799    18.0862 C.2     
  33 O33          -10.8905   -31.5965    18.8193 O.2     
  34 N34          -12.2410   -30.4268    17.5041 N.am    
  35 C35          -10.4845   -39.1819    18.5742 C.3     
  36 C36          -10.1231   -37.8841    19.2994 C.3     
  37 C37           -8.6324   -37.6721    19.2368 C.2     
  38 N38          -10.8039   -36.7585    18.6545 N.am    
  39 O39           -8.1829   -36.6786    18.7058 O.2     
  40 C40           -5.9088   -37.5069    20.8864 C.3     
  41 C41           -6.3495   -38.3804    19.7101 C.3     
  42 C42           -5.6492   -39.7128    19.7837 C.2     
  43 N43           -7.7987   -38.5865    19.7709 N.am    
  44 O44           -6.2967   -40.7339    19.8777 O.2     
  45 C45           -3.5420   -41.6767    18.4166 C.3     
  46 C46           -3.6223   -41.0648    19.8166 C.3     
  47 C47           -2.2304   -40.8712    20.3608 C.2     
  48 N48           -4.3031   -39.7696    19.7451 N.am    
  49 O49           -1.8450   -39.7607    20.6595 O.2     
  50 C50           -0.1067   -41.7419    22.5740 C.3     
  51 C51           -0.0606   -41.7440    21.0447 C.3     
  52 C52            0.8249   -42.8673    20.5703 C.2     
  53 N53           -1.4138   -41.9322    20.5156 N.am    
  54 O54            0.3705   -43.7392    19.8602 O.2     
  55 C55           -0.9031   -40.5288    23.0586 C.3     
  56 C56           -0.9485   -40.5268    24.5649 C.2     
  57 O57           -0.3980   -41.4088    25.1894 O.2     
  58 N58           -1.6008   -39.5448    25.2181 N.am    
  59 C59            3.5340   -43.6588    19.0869 C.3     
  60 C60            2.9827   -43.9950    20.4740 C.3     
  61 C61            4.1262   -44.1749    21.4389 C.2     
  62 N62            2.1219   -42.9030    20.9351 N.am    
  63 O63            4.2135   -43.4613    22.4157 O.2     
  64 C64            2.3731   -43.4760    18.1072 C.3     
  65 C65            4.3472   -42.3649    19.1612 C.3     
  66 C66            5.7211   -46.2083    23.3066 C.3     
  67 C67            6.1635   -45.3039    22.1545 C.3     
  68 C68            7.3297   -45.9358    21.4392 C.2     
  69 N69            5.0519   -45.1289    21.2165 N.am    
  70 O70            7.2411   -46.2127    20.2618 O.2     
  71 C71            4.6205   -45.5109    24.1087 C.3     
  72 C72            4.1847   -46.4017    25.2435 C.2     
  73 O73            4.7014   -47.4833    25.3951 O.2     
  74 O74            3.2226   -45.9935    26.0857 O.3     
  75 C75           10.4285   -45.7198    20.7199 C.3     
  76 C76            9.6049   -46.8075    21.4126 C.3     
  77 C77           10.4706   -47.5353    22.4085 C.2     
  78 N78            8.4712   -46.1932    22.1079 N.am    
  79 O79           10.1701   -47.5404    23.5835 O.2     
  80 C80            9.5875   -45.0645    19.6226 C.3     
  81 C81           10.3986   -43.9932    18.9404 C.2     
  82 O82           11.5372   -43.7753    19.2968 O.2     
  83 N83            9.8588   -43.2772    17.9342 N.am    
  84 C84           13.2471   -49.9403    22.3115 C.3     
  85 C85           12.4790   -48.7942    22.9729 C.3     
  86 C86           13.4537   -47.7607    23.4759 C.2     
  87 N87           11.5787   -48.1806    21.9936 N.am    
  88 O88           13.4013   -46.6235    23.0576 O.2     
  89 C89           12.2858   -51.0384    21.9358 C.2     
  90 O90           11.0997   -50.8891    22.1112 O.2     
  91 O91           12.7472   -52.1823    21.4064 O.3     
  92 C92           15.3309   -47.0955    24.8796 C.3     
  93 C93           16.2571   -47.7267    25.8870 C.2     
  94 N94           14.3834   -48.1001    24.3906 N.am    
  95 O95           16.1375   -48.9003    26.1688 O.2     
  96 C96           19.2849   -48.2707    26.7250 C.3     
  97 C97           18.1186   -47.6007    27.4542 C.3     
  98 C98           18.6498   -46.5391    28.3825 C.2     
  99 N99           17.2182   -46.9871    26.4749 N.am    
 100 O100          18.3098   -45.3837    28.2401 O.2     
 101 N101          19.4197   -51.2106    24.3366 N.pl3   
 102 C102          20.2906   -51.9655    23.5871 C.2     
 103 N103          19.8417   -52.9534    22.8650 N.2     
 104 N104          21.6351   -51.6785    23.5993 N.pl3   
 105 C105          18.7579   -49.4303    25.8774 C.3     
 106 C106          19.9243   -50.1003    25.1482 C.3     
 107 C107          19.0216   -45.6130    31.4108 C.3     
 108 C108          20.0191   -45.8416    30.2734 C.3     
 109 C109          21.3394   -46.2895    30.8456 C.2     
 110 N110          19.5027   -46.8737    29.3710 N.am    
 111 O111          21.6517   -47.4607    30.8054 O.2     
 112 O112          18.7872   -46.8462    32.0938 O.3     
 113 C113          17.7037   -45.0899    30.8358 C.3     
 114 C114          24.4784   -45.7575    30.6737 C.3     
 115 C115          23.5042   -45.8027    31.8525 C.3     
 116 C116          23.9814   -44.8688    32.9347 C.2     
 117 N117          22.1731   -45.3885    31.4021 N.am    
 118 O118          23.2788   -43.9479    33.2943 O.2     
 119 C119          23.9939   -46.7056    29.5750 C.3     
 120 C120          24.5470   -44.3316    30.1231 C.3     
 121 C121          25.6120   -44.2588    29.0270 C.3     
 122 C122         -27.6493   -25.2298    18.4680 C.3     
 123 C123         -29.0979   -25.1702    18.0569 C.2     
 124 N124         -26.9968   -26.3636    17.7997 N.3     
 125 O125         -29.5412   -25.9881    17.2866 O.2     
 126 C126         -24.3660   -27.1254    16.1650 C.3     
 127 C127         -24.9421   -27.5862    17.5054 C.3     
 128 C128         -23.8299   -28.1105    18.3766 C.2     
 129 N129         -25.5946   -26.4523    18.1737 N.3     
 130 O130         -23.6030   -27.5908    19.4487 O.2     
 131 N131         -26.0246   -25.8510    13.0042 N.pl3   
 132 C132         -25.7479   -25.3982    11.7359 C.2     
 133 N133         -26.7205   -25.0442    10.9436 N.2     
 134 N134         -24.4453   -25.3190    11.3032 N.pl3   
 135 C135         -25.5076   -26.7097    15.2350 C.3     
 136 C136         -24.9315   -26.2489    13.8946 C.3     
 137 C137         -22.0060   -29.6666    18.8113 C.3     
 138 C138         -20.9796   -30.3599    17.9528 C.2     
 139 N139         -23.0872   -29.1569    17.9644 N.am    
 140 O140         -21.1360   -30.4220    16.7517 O.2     
 141 C141         -24.8555   -29.8355    20.4545 C.ar    
 142 C142         -25.7128   -29.1748    21.3143 C.ar    
 143 C143         -25.2265   -28.6177    22.4823 C.ar    
 144 C144         -23.8830   -28.7217    22.7905 C.ar    
 145 C145         -23.0256   -29.3820    21.9304 C.ar    
 146 C146         -23.5119   -29.9391    20.7625 C.ar    
 147 C147         -22.5774   -30.6597    19.8253 C.3     
 148 C148         -17.9037   -30.5523    17.1357 C.3     
 149 C149         -18.8903   -31.5846    17.6850 C.3     
 150 C150         -18.1458   -32.6000    18.5131 C.2     
 151 N151         -19.8880   -30.9107    18.5197 N.am    
 152 O152         -18.4215   -32.7464    19.6851 O.2     
 153 C153         -18.6272   -29.6093    16.2093 C.2     
 154 N154         -19.1580   -28.3908    16.5367 N.pl3   
 155 C155         -19.7124   -27.8822    15.4153 C.2     
 156 N156         -19.5395   -28.7324    14.4404 N.2     
 157 C157         -18.8706   -29.8008    14.8987 C.2     
 158 C158          25.6529   -44.1490    34.5549 C.3     
 159 C159          27.0222   -44.5750    35.0183 C.2     
 160 N160          25.1890   -45.0569    33.5029 N.am    
 161 O161          27.5578   -45.5418    34.5189 O.2     
 162 C162          30.0440   -43.6891    35.5180 C.3     
 163 C163          28.9827   -44.2958    36.4380 C.3     
 164 C164          29.2073   -43.8163    37.8489 C.2     
 165 N165          27.6516   -43.8817    35.9876 N.am    
 166 O166          28.3409   -43.1902    38.4218 O.2     
 167 C167          29.8160   -44.1760    34.0856 C.3     
 168 C168          29.9433   -42.1630    35.5601 C.3     
 169 C169          31.0819   -41.5540    34.7395 C.3     
 170 C170          31.6222   -44.5142    40.5309 C.3     
 171 C171          30.5895   -43.6170    39.8456 C.3     
 172 C172          31.0958   -42.1978    39.8192 C.2     
 173 N173          30.3711   -44.0832    38.4741 N.am    
 174 O174          31.7352   -41.7996    38.8686 O.2     
 175 C175          32.9616   -44.4003    39.8003 C.3     
 176 C176          31.7957   -44.0731    41.9856 C.3     
 177 C177          32.7268   -45.0496    42.7070 C.3     
 178 H178         -31.4905   -23.9105    17.1034 H       
 179 H179         -31.9285   -24.9680    18.4665 H       
 180 H180         -32.0460   -22.9928    19.9610 H       
 181 H181         -31.6080   -21.9353    18.5979 H       
 182 H182         -33.6395   -22.6661    17.3782 H       
 183 H183         -34.0775   -23.7236    18.7414 H       
 184 H184         -34.1950   -21.7484    20.2359 H       
 185 H185         -33.7571   -20.6909    18.8727 H       
 186 H186         -35.7886   -21.4217    17.6531 H       
 187 H187         -36.2266   -22.4792    19.0162 H       
 188 H188         -36.3441   -20.5040    20.5107 H       
 189 H189         -35.9061   -19.4465    19.1476 H       
 190 H190         -37.9376   -20.1773    17.9280 H       
 191 H191         -38.3756   -21.2348    19.2911 H       
 192 H192         -38.4931   -19.2596    20.7856 H       
 193 H193         -38.0551   -18.2022    19.4225 H       
 194 H194         -40.0867   -18.9330    18.2028 H       
 195 H195         -40.5246   -19.9904    19.5660 H       
 196 H196         -40.6422   -18.0153    21.0605 H       
 197 H197         -40.2042   -16.9578    19.6973 H       
 198 H198         -42.2357   -17.6886    18.4777 H       
 199 H199         -42.6737   -18.7461    19.8408 H       
 200 H200         -42.7912   -16.7709    21.3354 H       
 201 H201         -42.3532   -15.7134    19.9722 H       
 202 H202         -44.3847   -16.4442    18.7526 H       
 203 H203         -44.8227   -17.5017    20.1157 H       
 204 H204         -44.9402   -15.5265    21.6102 H       
 205 H205         -44.5023   -14.4690    20.2471 H       
 206 H206         -46.5338   -15.1998    19.0274 H       
 207 H207         -46.9717   -16.2573    20.3906 H       
 208 H208         -46.9559   -14.4903    20.6043 H       
 209 H209          30.2654   -41.6652    41.5774 H       
 210 H210          31.2254   -40.4819    40.8698 H       
 211 H211         -16.6544   -36.4069    19.3005 H       
 212 H212         -16.3334   -33.9573    19.7731 H       
 213 H213         -16.9531   -33.2285    17.0140 H       
 214 H214         -19.0657   -36.3866    19.6477 H       
 215 H215         -18.3664   -34.9872    20.4968 H       
 216 H216         -19.1952   -34.7594    18.9381 H       
 217 H217         -18.1008   -35.3379    16.8343 H       
 218 H218         -16.5748   -36.2541    16.8269 H       
 219 H219         -18.0790   -37.0351    17.3706 H       
 220 H220         -12.0055   -33.7776    19.6679 H       
 221 H221         -10.9548   -34.1304    18.2752 H       
 222 H222         -12.8261   -35.4671    17.2635 H       
 223 H223         -14.3212   -35.4955    19.7718 H       
 224 H224         -12.6084   -33.0731    16.7598 H       
 225 H225         -13.6591   -32.7203    18.1525 H       
 226 H226         -13.0137   -30.4135    16.9178 H       
 227 H227         -11.7451   -29.6101    17.6714 H       
 228 H228          -9.9780   -40.0194    19.0540 H       
 229 H229         -11.5627   -39.3353    18.6195 H       
 230 H230         -10.1703   -39.1158    17.5326 H       
 231 H231         -10.4373   -37.9502    20.3410 H       
 232 H232         -10.3442   -36.2367    17.9782 H       
 233 H233          -6.1665   -38.0016    21.8229 H       
 234 H234          -4.8306   -37.3536    20.8411 H       
 235 H235          -6.4154   -36.5433    20.8332 H       
 236 H236          -6.0919   -37.8857    18.7736 H       
 237 H237          -8.1582   -39.3811    20.1956 H       
 238 H238          -3.0354   -42.6404    18.4699 H       
 239 H239          -4.5487   -41.8167    18.0230 H       
 240 H240          -2.9846   -41.0090    17.7597 H       
 241 H241          -4.1797   -41.7324    20.4736 H       
 242 H242          -3.7852   -38.9529    19.6699 H       
 243 H243          -0.5872   -42.6555    22.9242 H       
 244 H244           0.9083   -41.6912    22.9680 H       
 245 H245           0.3384   -40.7930    20.6919 H       
 246 H246          -1.7219   -42.8203    20.2767 H       
 247 H247          -0.4227   -39.6152    22.7083 H       
 248 H248          -1.9182   -40.5795    22.6646 H       
 249 H249          -2.0410   -38.8393    24.7187 H       
 250 H250          -1.6300   -39.5435    26.1877 H       
 251 H251           4.1746   -44.4712    18.7438 H       
 252 H252           2.4034   -44.9168    20.4211 H       
 253 H253           2.4853   -42.2056    21.5031 H       
 254 H254           1.7326   -42.6636    18.4503 H       
 255 H255           2.7659   -43.2365    17.1191 H       
 256 H256           1.7938   -44.3978    18.0543 H       
 257 H257           3.7067   -41.5524    19.5043 H       
 258 H258           5.1742   -42.4950    19.8591 H       
 259 H259           4.7399   -42.1254    18.1730 H       
 260 H260           5.3390   -47.1470    22.9055 H       
 261 H261           6.5720   -46.4106    23.9570 H       
 262 H262           6.4622   -44.3327    22.5491 H       
 263 H263           4.9821   -45.6997    20.4353 H       
 264 H264           5.0026   -44.5722    24.5098 H       
 265 H265           3.7696   -45.3085    23.4583 H       
 266 H266           2.9768   -46.5993    26.7982 H       
 267 H267          10.7231   -44.9666    21.4506 H       
 268 H268          11.3196   -46.1652    20.2776 H       
 269 H269           9.2356   -47.5130    20.6682 H       
 270 H270           8.5421   -45.9717    23.0497 H       
 271 H271           9.2928   -45.8177    18.8920 H       
 272 H272           8.6963   -44.6191    20.0649 H       
 273 H273           8.9481   -43.4514    17.6492 H       
 274 H274          10.3809   -42.5876    17.4951 H       
 275 H275          13.7473   -49.5730    21.4154 H       
 276 H276          13.9894   -50.3299    23.0081 H       
 277 H277          11.8968   -49.1818    23.8088 H       
 278 H278          11.7801   -48.2387    21.0465 H       
 279 H279          12.0925   -52.8574    21.1815 H       
 280 H280          14.7837   -46.2790    25.3508 H       
 281 H281          15.9131   -46.7079    24.0437 H       
 282 H282          14.4253   -49.0097    24.7252 H       
 283 H283          19.7761   -47.5427    26.0794 H       
 284 H284          20.0001   -48.6499    27.4550 H       
 285 H285          17.5733   -48.3479    28.0308 H       
 286 H286          17.3139   -46.0485    26.2496 H       
 287 H287          18.4711   -51.4131    24.3280 H       
 288 H288          20.4561   -53.4861    22.3362 H       
 289 H289          21.9692   -50.9433    24.1367 H       
 290 H290          22.2495   -52.2111    23.0705 H       
 291 H291          18.2667   -50.1584    26.5229 H       
 292 H292          18.0428   -49.0511    25.1474 H       
 293 H293          20.6395   -50.4795    25.8782 H       
 294 H294          20.4155   -49.3722    24.5026 H       
 295 H295          19.4286   -44.8823    32.1096 H       
 296 H296          20.1591   -44.9126    29.7207 H       
 297 H297          19.7747   -47.7978    29.4849 H       
 298 H298          19.5810   -47.2364    32.4846 H       
 299 H299          17.2480   -45.8598    30.2131 H       
 300 H300          17.0273   -44.8349    31.6516 H       
 301 H301          17.8971   -44.2025    30.2333 H       
 302 H302          25.4688   -46.0656    31.0088 H       
 303 H303          23.4553   -46.8185    32.2447 H       
 304 H304          21.8917   -44.4659    31.5044 H       
 305 H305          24.6880   -46.6734    28.7351 H       
 306 H306          23.9450   -47.7214    29.9672 H       
 307 H307          23.0035   -46.3975    29.2399 H       
 308 H308          23.5780   -44.0557    29.7072 H       
 309 H309          24.8062   -43.6435    30.9278 H       
 310 H310          26.5810   -44.5347    29.4430 H       
 311 H311          25.3528   -44.9469    28.2224 H       
 312 H312          25.6609   -43.2430    28.6348 H       
 313 H313         -27.1517   -24.3035    18.1808 H       
 314 H314         -27.5831   -25.3578    19.5484 H       
 315 H315         -27.4794   -27.2271    17.9987 H       
 316 H316         -23.7023   -26.2762    16.3275 H       
 317 H317         -23.8060   -27.9424    15.7101 H       
 318 H318         -25.6730   -28.3765    17.3343 H       
 319 H319         -25.1120   -25.5888    17.9747 H       
 320 H320         -26.9436   -25.9069    13.3094 H       
 321 H321         -26.5252   -24.7247    10.0488 H       
 322 H322         -23.7216   -25.5825    11.8928 H       
 323 H323         -24.2501   -24.9996    10.4084 H       
 324 H324         -26.1714   -27.5589    15.0725 H       
 325 H325         -26.0677   -25.8927    15.6899 H       
 326 H326         -24.3715   -27.0660    13.4397 H       
 327 H327         -24.2678   -25.3997    14.0571 H       
 328 H328         -21.5368   -28.8370    19.3401 H       
 329 H329         -23.2687   -29.5726    17.1069 H       
 330 H330         -25.2362   -30.2746    19.5441 H       
 331 H331         -26.7625   -29.0935    21.0735 H       
 332 H332         -25.8962   -28.1009    23.1537 H       
 333 H333         -23.5030   -28.2859    23.7027 H       
 334 H334         -21.9759   -29.4629    22.1711 H       
 335 H335         -23.1232   -31.4428    19.2990 H       
 336 H336         -21.7627   -31.1054    20.3961 H       
 337 H337         -17.4701   -29.9886    17.9618 H       
 338 H338         -17.1111   -31.0625    16.5884 H       
 339 H339         -19.3893   -32.0871    16.8564 H       
 340 H340         -19.7630   -30.8610    19.4803 H       
 341 H341         -19.1393   -27.9711    17.4110 H       
 342 H342         -20.2158   -26.9298    15.3381 H       
 343 H343         -18.5804   -30.6645    14.3189 H       
 344 H344          24.9588   -44.1812    35.3948 H       
 345 H345          25.7018   -43.1332    34.1627 H       
 346 H346          25.7509   -45.7934    33.2153 H       
 347 H347          31.0344   -43.9973    35.8532 H       
 348 H348          29.0544   -45.3831    36.4080 H       
 349 H349          27.2232   -43.1085    36.3870 H       
 350 H350          29.8877   -45.2632    34.0557 H       
 351 H351          28.8256   -43.8679    33.7505 H       
 352 H352          30.5721   -43.7438    33.4302 H       
 353 H353          28.9865   -41.8504    35.1420 H       
 354 H354          30.0172   -41.8224    36.5929 H       
 355 H355          31.0080   -41.8946    33.7067 H       
 356 H356          31.0102   -40.4667    34.7694 H       
 357 H357          32.0388   -41.8666    35.1576 H       
 358 H358          31.2800   -45.5487    40.5032 H       
 359 H359          29.6502   -43.6574    40.3970 H       
 360 H360          31.0641   -44.5839    38.0159 H       
 361 H361          33.3038   -43.3657    39.8279 H       
 362 H362          33.6973   -45.0395    40.2884 H       
 363 H363          32.8380   -44.7145    38.7639 H       
 364 H364          32.2269   -43.0724    42.0129 H       
 365 H365          30.8247   -44.0640    42.4808 H       
 366 H366          32.2956   -46.0503    42.6797 H       
 367 H367          33.6978   -45.0587    42.2119 H       
 368 H368          32.8504   -44.7353    43.7434 H       
@<TRIPOS>BOND
   1    1  123 1
   2    1    2 2
   3    1    3 1
   4    3    4 1
   5    3  178 1
   6    3  179 1
   7    4    5 1
   8    4  180 1
   9    4  181 1
  10    5    6 1
  11    5  182 1
  12    5  183 1
  13    6    7 1
  14    6  184 1
  15    6  185 1
  16    7    8 1
  17    7  186 1
  18    7  187 1
  19    8    9 1
  20    8  188 1
  21    8  189 1
  22    9   10 1
  23    9  190 1
  24    9  191 1
  25   10   11 1
  26   10  192 1
  27   10  193 1
  28   11   12 1
  29   11  194 1
  30   11  195 1
  31   12   13 1
  32   12  196 1
  33   12  197 1
  34   13   14 1
  35   13  198 1
  36   13  199 1
  37   14   15 1
  38   14  200 1
  39   14  201 1
  40   15   16 1
  41   15  202 1
  42   15  203 1
  43   16   17 1
  44   16  204 1
  45   16  205 1
  46   17  206 1
  47   17  207 1
  48   17  208 1
  49   18  172 am
  50   18  209 1
  51   18  210 1
  52   19   24 1
  53   19   25 1
  54   19   20 1
  55   19  211 1
  56   20   22 1
  57   20   21 1
  58   20  212 1
  59   21   23 2
  60   21   29 am
  61   22  150 am
  62   22  213 1
  63   24  214 1
  64   24  215 1
  65   24  216 1
  66   25  217 1
  67   25  218 1
  68   25  219 1
  69   26   31 1
  70   26   27 1
  71   26  220 1
  72   26  221 1
  73   27   29 1
  74   27   28 1
  75   27  222 1
  76   28   30 2
  77   28   38 am
  78   29  223 1
  79   31   32 1
  80   31  224 1
  81   31  225 1
  82   32   33 2
  83   32   34 am
  84   34  226 1
  85   34  227 1
  86   35   36 1
  87   35  228 1
  88   35  229 1
  89   35  230 1
  90   36   37 1
  91   36   38 1
  92   36  231 1
  93   37   39 2
  94   37   43 am
  95   38  232 1
  96   40   41 1
  97   40  233 1
  98   40  234 1
  99   40  235 1
 100   41   42 1
 101   41   43 1
 102   41  236 1
 103   42   44 2
 104   42   48 am
 105   43  237 1
 106   45   46 1
 107   45  238 1
 108   45  239 1
 109   45  240 1
 110   46   47 1
 111   46   48 1
 112   46  241 1
 113   47   49 2
 114   47   53 am
 115   48  242 1
 116   50   55 1
 117   50   51 1
 118   50  243 1
 119   50  244 1
 120   51   53 1
 121   51   52 1
 122   51  245 1
 123   52   54 2
 124   52   62 am
 125   53  246 1
 126   55   56 1
 127   55  247 1
 128   55  248 1
 129   56   57 2
 130   56   58 am
 131   58  249 1
 132   58  250 1
 133   59   64 1
 134   59   65 1
 135   59   60 1
 136   59  251 1
 137   60   62 1
 138   60   61 1
 139   60  252 1
 140   61   63 2
 141   61   69 am
 142   62  253 1
 143   64  254 1
 144   64  255 1
 145   64  256 1
 146   65  257 1
 147   65  258 1
 148   65  259 1
 149   66   71 1
 150   66   67 1
 151   66  260 1
 152   66  261 1
 153   67   69 1
 154   67   68 1
 155   67  262 1
 156   68   70 2
 157   68   78 am
 158   69  263 1
 159   71   72 1
 160   71  264 1
 161   71  265 1
 162   72   73 2
 163   72   74 1
 164   74  266 1
 165   75   80 1
 166   75   76 1
 167   75  267 1
 168   75  268 1
 169   76   78 1
 170   76   77 1
 171   76  269 1
 172   77   79 2
 173   77   87 am
 174   78  270 1
 175   80   81 1
 176   80  271 1
 177   80  272 1
 178   81   82 2
 179   81   83 am
 180   83  273 1
 181   83  274 1
 182   84   89 1
 183   84   85 1
 184   84  275 1
 185   84  276 1
 186   85   86 1
 187   85   87 1
 188   85  277 1
 189   86   88 2
 190   86   94 am
 191   87  278 1
 192   89   90 2
 193   89   91 1
 194   91  279 1
 195   92   93 1
 196   92   94 1
 197   92  280 1
 198   92  281 1
 199   93   95 2
 200   93   99 am
 201   94  282 1
 202   96  105 1
 203   96   97 1
 204   96  283 1
 205   96  284 1
 206   97   99 1
 207   97   98 1
 208   97  285 1
 209   98  100 2
 210   98  110 am
 211   99  286 1
 212  101  106 1
 213  101  102 1
 214  101  287 1
 215  102  103 2
 216  102  104 1
 217  103  288 1
 218  104  289 1
 219  104  290 1
 220  105  106 1
 221  105  291 1
 222  105  292 1
 223  106  293 1
 224  106  294 1
 225  107  108 1
 226  107  112 1
 227  107  113 1
 228  107  295 1
 229  108  110 1
 230  108  109 1
 231  108  296 1
 232  109  111 2
 233  109  117 am
 234  110  297 1
 235  112  298 1
 236  113  299 1
 237  113  300 1
 238  113  301 1
 239  114  115 1
 240  114  119 1
 241  114  120 1
 242  114  302 1
 243  115  117 1
 244  115  116 1
 245  115  303 1
 246  116  118 2
 247  116  160 am
 248  117  304 1
 249  119  305 1
 250  119  306 1
 251  119  307 1
 252  120  121 1
 253  120  308 1
 254  120  309 1
 255  121  310 1
 256  121  311 1
 257  121  312 1
 258  122  123 1
 259  122  124 1
 260  122  313 1
 261  122  314 1
 262  123  125 2
 263  124  129 1
 264  124  315 1
 265  126  135 1
 266  126  127 1
 267  126  316 1
 268  126  317 1
 269  127  129 1
 270  127  128 1
 271  127  318 1
 272  128  130 2
 273  128  139 am
 274  129  319 1
 275  131  136 1
 276  131  132 1
 277  131  320 1
 278  132  133 2
 279  132  134 1
 280  133  321 1
 281  134  322 1
 282  134  323 1
 283  135  136 1
 284  135  324 1
 285  135  325 1
 286  136  326 1
 287  136  327 1
 288  137  138 1
 289  137  139 1
 290  137  147 1
 291  137  328 1
 292  138  140 2
 293  138  151 am
 294  139  329 1
 295  141  142 ar
 296  141  146 ar
 297  141  330 1
 298  142  143 ar
 299  142  331 1
 300  143  144 ar
 301  143  332 1
 302  144  145 ar
 303  144  333 1
 304  145  146 ar
 305  145  334 1
 306  146  147 1
 307  147  335 1
 308  147  336 1
 309  148  153 1
 310  148  149 1
 311  148  337 1
 312  148  338 1
 313  149  150 1
 314  149  151 1
 315  149  339 1
 316  150  152 2
 317  151  340 1
 318  153  154 1
 319  153  157 2
 320  154  155 1
 321  154  341 1
 322  155  156 2
 323  155  342 1
 324  156  157 1
 325  157  343 1
 326  158  159 1
 327  158  160 1
 328  158  344 1
 329  158  345 1
 330  159  161 2
 331  159  165 am
 332  160  346 1
 333  162  163 1
 334  162  167 1
 335  162  168 1
 336  162  347 1
 337  163  165 1
 338  163  164 1
 339  163  348 1
 340  164  166 2
 341  164  173 am
 342  165  349 1
 343  167  350 1
 344  167  351 1
 345  167  352 1
 346  168  169 1
 347  168  353 1
 348  168  354 1
 349  169  355 1
 350  169  356 1
 351  169  357 1
 352  170  171 1
 353  170  175 1
 354  170  176 1
 355  170  358 1
 356  171  173 1
 357  171  172 1
 358  171  359 1
 359  172  174 2
 360  173  360 1
 361  175  361 1
 362  175  362 1
 363  175  363 1
 364  176  177 1
 365  176  364 1
 366  176  365 1
 367  177  366 1
 368  177  367 1
 369  177  368 1

#	End of record

