#	Name: ASD02270015
#	Creating user name:	WinNT
#	Creation time:	15. 06. 2019 20:20

#	Modifying user name:	WinNT
#	Modification time:	15. 06. 2019 20:20

#	Program:	/corina/corina34_cracker 3.40 0067  02.08.2006

@<TRIPOS>MOLECULE
ASD02270015
  54   57    0    0    0
SMALL
NO_CHARGES


@<TRIPOS>ATOM
   1 C1            -0.4252     1.7298     0.6751 C.ar    
   2 C2            -0.9575     0.8131     1.5683 C.ar    
   3 C3            -0.5683     0.8385     2.8936 C.ar    
   4 C4             0.3505     1.7755     3.3333 C.ar    
   5 C5             0.8861     2.6934     2.4506 C.ar    
   6 C6             0.5023     2.6751     1.1188 C.ar    
   7 N7             0.8514     3.4462     0.0126 N.am    
   8 C8             0.1690     2.9903    -1.0548 C.2     
   9 N9            -0.6062     1.9525    -0.6879 N.am    
  10 O10            0.2441     3.4452    -2.1809 O.2     
  11 C11            1.7995     4.5630     0.0108 C.3     
  12 C12            1.6546     5.3553    -1.2914 C.3     
  13 C13            0.2437     5.9429    -1.3710 C.3     
  14 N14            0.0111     6.8189    -0.2156 N.3     
  15 C15            0.0984     6.0701     1.0446 C.3     
  16 C16            1.5049     5.4863     1.1962 C.3     
  17 C17           -1.2809     7.5087    -0.3297 C.3     
  18 C18           -2.4148     6.4851    -0.2445 C.3     
  19 N19           -3.7033     7.1730    -0.3583 N.am    
  20 C20           -4.8505     6.4674    -0.3097 C.2     
  21 O21           -4.8162     5.2601    -0.1715 O.2     
  22 C22           -6.1497     7.1611    -0.4244 C.ar    
  23 C23           -7.3400     6.4324    -0.3744 C.ar    
  24 C24           -8.5495     7.0847    -0.4819 C.ar    
  25 C25           -8.5857     8.4618    -0.6396 C.ar    
  26 C26           -7.4069     9.1901    -0.6904 C.ar    
  27 C27           -6.1922     8.5486    -0.5775 C.ar    
  28 F28           -9.7739     9.0962    -0.7445 F       
  29 C29           -0.1929     7.0092     2.2168 C.3     
  30 H30           -1.6752     0.0808     1.2290 H       
  31 H31           -0.9829     0.1243     3.5896 H       
  32 H32            0.6497     1.7894     4.3709 H       
  33 H33            1.6025     3.4234     2.7974 H       
  34 H34           -1.1942     1.4488    -1.2721 H       
  35 H35            2.8161     4.1780     0.0917 H       
  36 H36            2.3866     6.1627    -1.3096 H       
  37 H37            1.8213     4.6929    -2.1409 H       
  38 H38            0.1417     6.5195    -2.2903 H       
  39 H39           -0.4872     5.1343    -1.3667 H       
  40 H40           -0.6319     5.2609     1.0376 H       
  41 H41            1.5647     4.9176     2.1242 H       
  42 H42            2.2345     6.2958     1.2172 H       
  43 H43           -1.3806     8.2298     0.4816 H       
  44 H44           -1.3319     8.0287    -1.2863 H       
  45 H45           -2.3151     5.7640    -1.0558 H       
  46 H46           -2.3638     5.9651     0.7121 H       
  47 H47           -3.7306     8.1363    -0.4686 H       
  48 H48           -7.3129     5.3597    -0.2519 H       
  49 H49           -9.4706     6.5221    -0.4437 H       
  50 H50           -7.4408    10.2625    -0.8136 H       
  51 H51           -5.2746     9.1168    -0.6169 H       
  52 H52           -1.1951     7.4243     2.1094 H       
  53 H53           -0.1282     6.4535     3.1523 H       
  54 H54            0.5369     7.8188     2.2238 H       
@<TRIPOS>BOND
   1    1    2 ar
   2    1    6 ar
   3    1    9 1
   4    2    3 ar
   5    2   30 1
   6    3    4 ar
   7    3   31 1
   8    4    5 ar
   9    4   32 1
  10    5    6 ar
  11    5   33 1
  12    6    7 1
  13    7    8 am
  14    7   11 1
  15    8    9 am
  16    8   10 2
  17    9   34 1
  18   11   12 1
  19   11   16 1
  20   11   35 1
  21   12   13 1
  22   12   36 1
  23   12   37 1
  24   13   14 1
  25   13   38 1
  26   13   39 1
  27   14   15 1
  28   14   17 1
  29   15   16 1
  30   15   29 1
  31   15   40 1
  32   16   41 1
  33   16   42 1
  34   17   18 1
  35   17   43 1
  36   17   44 1
  37   18   19 1
  38   18   45 1
  39   18   46 1
  40   19   20 am
  41   19   47 1
  42   20   21 2
  43   20   22 1
  44   22   23 ar
  45   22   27 ar
  46   23   24 ar
  47   23   48 1
  48   24   25 ar
  49   24   49 1
  50   25   26 ar
  51   25   28 1
  52   26   27 ar
  53   26   50 1
  54   27   51 1
  55   29   52 1
  56   29   53 1
  57   29   54 1

#	End of record

