#	Name: ASD00170705
#	Creating user name:	WinNT
#	Creation time:	15. 06. 2019 18:32

#	Modifying user name:	WinNT
#	Modification time:	15. 06. 2019 18:32

#	Program:	/corina/corina34_cracker 3.40 0067  02.08.2006

@<TRIPOS>MOLECULE
ASD00170705
  39   42    0    0    0
SMALL
NO_CHARGES


@<TRIPOS>ATOM
   1 C1            -0.0238     1.3587     0.0188 C.2     
   2 C2            -0.0084    -0.0151     0.0165 C.2     
   3 C3             1.3386    -0.5667     0.0020 C.2     
   4 C4             2.3189     0.4095    -0.0064 C.2     
   5 S5             1.6026     2.0084     0.0034 S.3     
   6 C6             1.2074    -2.0357     0.0011 C.2     
   7 C7            -0.2303    -2.3572     0.0151 C.ar    
   8 C8            -0.9123    -3.5766     0.0197 C.ar    
   9 C9            -2.2912    -3.5926     0.0332 C.ar    
  10 C10           -3.0098    -2.4073     0.0418 C.ar    
  11 C11           -2.3543    -1.1929     0.0375 C.ar    
  12 C12           -0.9609    -1.1575     0.0243 C.ar    
  13 O13            2.1236    -2.8393    -0.0094 O.2     
  14 C14           -1.2488     2.1785     0.0269 C.ar    
  15 C15           -1.3852     3.2259     0.9431 C.ar    
  16 C16           -2.5311     3.9896     0.9476 C.ar    
  17 C17           -3.5525     3.7198     0.0424 C.ar    
  18 C18           -3.4207     2.6782    -0.8705 C.ar    
  19 C19           -2.2749     1.9144    -0.8855 C.ar    
  20 N20           -4.7114     4.4949     0.0503 N.pl3   
  21 C21           -4.9107     5.5038     1.0937 C.3     
  22 C22           -5.7298     4.3005    -0.9847 C.3     
  23 N23            3.6693     0.1593    -0.0201 N.pl3   
  24 H24           -0.3606    -4.5050     0.0123 H       
  25 H25           -2.8156    -4.5367     0.0367 H       
  26 H26           -4.0894    -2.4344     0.0516 H       
  27 H27           -2.9193    -0.2725     0.0446 H       
  28 H28           -0.5930     3.4355     1.6466 H       
  29 H29           -2.6372     4.7987     1.6550 H       
  30 H30           -4.2160     2.4713    -1.5712 H       
  31 H31           -2.1712     1.1091    -1.5977 H       
  32 H32           -4.4950     6.4555     0.7630 H       
  33 H33           -5.9770     5.6207     1.2871 H       
  34 H34           -4.4085     5.1857     2.0073 H       
  35 H35           -5.3688     3.5803    -1.7189 H       
  36 H36           -6.6454     3.9253    -0.5276 H       
  37 H37           -5.9329     5.2511    -1.4777 H       
  38 H38            3.9932    -0.7550    -0.0245 H       
  39 H39            4.2992     0.8969    -0.0253 H       
@<TRIPOS>BOND
   1    1    2 2
   2    1    5 1
   3    1   14 1
   4    2    3 1
   5    2   12 1
   6    3    4 2
   7    3    6 1
   8    4    5 1
   9    4   23 1
  10    6    7 1
  11    6   13 2
  12    7    8 ar
  13    7   12 ar
  14    8    9 ar
  15    8   24 1
  16    9   10 ar
  17    9   25 1
  18   10   11 ar
  19   10   26 1
  20   11   12 ar
  21   11   27 1
  22   14   15 ar
  23   14   19 ar
  24   15   16 ar
  25   15   28 1
  26   16   17 ar
  27   16   29 1
  28   17   18 ar
  29   17   20 1
  30   18   19 ar
  31   18   30 1
  32   19   31 1
  33   20   21 1
  34   20   22 1
  35   21   32 1
  36   21   33 1
  37   21   34 1
  38   22   35 1
  39   22   36 1
  40   22   37 1
  41   23   38 1
  42   23   39 1

#	End of record

