#	Name: ASD03090617
#	Creating user name:	WinNT
#	Creation time:	15. 06. 2019 20:29

#	Modifying user name:	WinNT
#	Modification time:	15. 06. 2019 20:29

#	Program:	/corina/corina34_cracker 3.40 0067  02.08.2006

@<TRIPOS>MOLECULE
ASD03090617
  41   42    0    0    0
SMALL
NO_CHARGES


@<TRIPOS>ATOM
   1 N1            -0.0162     1.3436     0.0094 N.am    
   2 C2             0.0189     0.1476     0.6298 C.2     
   3 O3             1.0722    -0.2858     1.0555 O.2     
   4 N4            -1.1134    -0.5681     0.7782 N.am    
   5 O5            -1.7395    -3.6097     2.2172 O.3     
   6 N6            -2.0866    -2.6079     1.6360 N.2     
   7 C7            -1.0771    -1.8058     1.4201 C.2     
   8 C8             0.0641    -2.4477     1.9704 C.2     
   9 C9            -0.4227    -3.6062     2.4705 C.2     
  10 C10            0.3617    -4.6831     3.1748 C.3     
  11 C11            1.1455     2.1270    -0.0705 C.ar    
  12 C12            1.0459     3.5104    -0.1989 C.ar    
  13 C13            2.1937     4.2813    -0.2770 C.ar    
  14 C14            3.4402     3.6751    -0.2274 C.ar    
  15 C15            3.5382     2.2968    -0.0995 C.ar    
  16 C16            2.3935     1.5252    -0.0159 C.ar    
  17 O17            4.5673     4.4321    -0.3046 O.3     
  18 C18            4.3926     5.8443    -0.4357 C.3     
  19 C19            5.7619     6.5232    -0.5070 C.3     
  20 O20           -0.1771     4.1033    -0.2478 O.3     
  21 C21           -0.2035     5.5259    -0.3803 C.3     
  22 C22           -1.6552     6.0077    -0.4177 C.3     
  23 Cl23           5.0997     1.5408    -0.0382 Cl      
  24 H24           -0.8434     1.6611    -0.3853 H       
  25 H25           -1.9537    -0.2224     0.4385 H       
  26 H26            1.0841    -2.0932     1.9856 H       
  27 H27           -0.3090    -5.4935     3.4601 H       
  28 H28            1.1322    -5.0674     2.5065 H       
  29 H29            0.8293    -4.2672     4.0673 H       
  30 H30            2.1183     5.3540    -0.3769 H       
  31 H31            2.4716     0.4530     0.0877 H       
  32 H32            3.8332     6.0582    -1.3464 H       
  33 H33            3.8433     6.2240     0.4258 H       
  34 H34            5.6287     7.6004    -0.6070 H       
  35 H35            6.3213     6.3093     0.4038 H       
  36 H36            6.3113     6.1435    -1.3684 H       
  37 H37            0.3080     5.9794     0.4687 H       
  38 H38            0.2990     5.8143    -1.3035 H       
  39 H39           -2.1667     5.5542    -1.2667 H       
  40 H40           -2.1576     5.7194     0.5056 H       
  41 H41           -1.6753     7.0929    -0.5187 H       
@<TRIPOS>BOND
   1    1    2 am
   2    1   11 1
   3    1   24 1
   4    2    3 2
   5    2    4 am
   6    4    7 1
   7    4   25 1
   8    5    6 1
   9    5    9 1
  10    6    7 2
  11    7    8 1
  12    8    9 2
  13    8   26 1
  14    9   10 1
  15   10   27 1
  16   10   28 1
  17   10   29 1
  18   11   12 ar
  19   11   16 ar
  20   12   13 ar
  21   12   20 1
  22   13   14 ar
  23   13   30 1
  24   14   15 ar
  25   14   17 1
  26   15   16 ar
  27   15   23 1
  28   16   31 1
  29   17   18 1
  30   18   19 1
  31   18   32 1
  32   18   33 1
  33   19   34 1
  34   19   35 1
  35   19   36 1
  36   20   21 1
  37   21   22 1
  38   21   37 1
  39   21   38 1
  40   22   39 1
  41   22   40 1
  42   22   41 1

#	End of record

