#	Name: ASD02770055
#	Creating user name:	WinNT
#	Creation time:	15. 06. 2019 20:26

#	Modifying user name:	WinNT
#	Modification time:	15. 06. 2019 20:26

#	Program:	/corina/corina34_cracker 3.40 0067  02.08.2006

@<TRIPOS>MOLECULE
ASD02770055
  43   43    0    0    0
SMALL
NO_CHARGES


@<TRIPOS>ATOM
   1 C1            -0.0184     1.5028     0.0103 C.2     
   2 C2             0.0021    -0.0041     0.0020 C.3     
   3 O3             1.0236     2.1234     0.0037 O.2     
   4 N4            -1.1946     2.1607     0.0195 N.am    
   5 O5             1.3556    -0.4620    -0.0134 O.3     
   6 C6             1.5521    -1.8079    -0.0225 C.ar    
   7 C7             1.6410    -2.4891    -1.2270 C.ar    
   8 C8             1.8408    -3.8579    -1.2339 C.ar    
   9 C9             1.9517    -4.5492    -0.0417 C.ar    
  10 C10            1.8635    -3.8757     1.1622 C.ar    
  11 C11            1.6700    -2.5034     1.1765 C.ar    
  12 C12            2.1688    -6.0404    -0.0547 C.3     
  13 N13            3.6099    -6.3253    -0.0707 N.3     
  14 C14            3.8602    -7.7727    -0.0837 C.3     
  15 C15            6.0472    -8.1516     1.0845 C.ar    
  16 C16            5.3458    -8.0255    -0.0999 C.ar    
  17 C17            6.0261    -8.1349    -1.3028 C.ar    
  18 C18            7.3927    -8.3681    -1.2692 C.ar    
  19 C19            8.0264    -8.4829    -0.0467 C.ar    
  20 N20            7.3470    -8.3728     1.0783 N.ar    
  21 O21            1.5895    -1.8389     2.3603 O.3     
  22 C22            1.7194    -2.6175     3.5515 C.3     
  23 Cl23           1.5011    -1.6245    -2.7258 Cl      
  24 H24           -0.4983    -0.3791     0.8948 H       
  25 H25           -0.5153    -0.3696    -0.8850 H       
  26 H26           -2.0280     1.6644     0.0207 H       
  27 H27           -1.2077     3.1306     0.0248 H       
  28 H28            1.9100    -4.3877    -2.1725 H       
  29 H29            1.9497    -4.4184     2.0920 H       
  30 H30            1.7213    -6.4805     0.8364 H       
  31 H31            1.7042    -6.4674    -0.9434 H       
  32 H32            4.0591    -5.8736    -0.8531 H       
  33 H33            3.4244    -8.2249     0.8072 H       
  34 H34            3.4073    -8.2118    -0.9726 H       
  35 H35            5.5253    -8.0632     2.0259 H       
  36 H36            5.5042    -8.0410    -2.2436 H       
  37 H37            7.9545    -8.4592    -2.1871 H       
  38 H38            9.0905    -8.6645    -0.0120 H       
  39 H39            1.6366    -1.9667     4.4219 H       
  40 H40            0.9298    -3.3683     3.5827 H       
  41 H41            2.6910    -3.1117     3.5584 H       
  42 Cl42          14.0905     8.1306     9.4219 Cl      
  43 H43           14.0905     9.5006     9.4219 H       
@<TRIPOS>BOND
   1    1    2 1
   2    1    3 2
   3    1    4 am
   4    2    5 1
   5    2   24 1
   6    2   25 1
   7    4   26 1
   8    4   27 1
   9    5    6 1
  10    6    7 ar
  11    6   11 ar
  12    7    8 ar
  13    7   23 1
  14    8    9 ar
  15    8   28 1
  16    9   10 ar
  17    9   12 1
  18   10   11 ar
  19   10   29 1
  20   11   21 1
  21   12   13 1
  22   12   30 1
  23   12   31 1
  24   13   14 1
  25   13   32 1
  26   14   16 1
  27   14   33 1
  28   14   34 1
  29   15   16 ar
  30   15   20 ar
  31   15   35 1
  32   16   17 ar
  33   17   18 ar
  34   17   36 1
  35   18   19 ar
  36   18   37 1
  37   19   20 ar
  38   19   38 1
  39   21   22 1
  40   22   39 1
  41   22   40 1
  42   22   41 1
  43   42   43 1

#	End of record

