#	Name: ASD01914911
#	Creating user name:	WinNT
#	Creation time:	15. 06. 2019 20:04

#	Modifying user name:	WinNT
#	Modification time:	15. 06. 2019 20:04

#	Program:	/corina/corina34_cracker 3.40 0067  02.08.2006

@<TRIPOS>MOLECULE
ASD01914911
  49   53    0    0    0
SMALL
NO_CHARGES


@<TRIPOS>ATOM
   1 C1            -0.0032     1.3311    -0.0214 C.2     
   2 N2             0.0138     0.0590     0.3179 N.2     
   3 C3             1.3082     1.7200    -0.3419 C.2     
   4 C4             2.1160     0.6324    -0.1825 C.2     
   5 N5             1.3318    -0.4058     0.2258 N.pl3   
   6 C6            -1.2036     2.2033    -0.0640 C.ar    
   7 C7            -2.4535     1.6894     0.2744 C.ar    
   8 C8            -3.5664     2.5048     0.2330 C.ar    
   9 C9            -3.4423     3.8298    -0.1441 C.ar    
  10 C10           -2.2038     4.3451    -0.4811 C.ar    
  11 C11           -1.0834     3.5402    -0.4371 C.ar    
  12 C12            3.5775     0.5874    -0.4111 C.ar    
  13 C13            4.1837     1.5199    -1.2531 C.ar    
  14 C14            5.5468     1.4726    -1.4621 C.ar    
  15 C15            6.3119     0.5032    -0.8388 C.ar    
  16 C16            5.7165    -0.4246    -0.0030 C.ar    
  17 C17            4.3553    -0.3841     0.2191 C.ar    
  18 C18            1.7877    -1.7673     0.5173 C.3     
  19 C19            2.0657    -1.8989     1.9926 C.2     
  20 N20            2.4991    -3.0722     2.4946 N.am    
  21 C21            2.7559    -4.3063     1.7491 C.3     
  22 O22            1.8994    -0.9490     2.7281 O.2     
  23 C23            2.8141    -3.3673     3.8953 C.3     
  24 C24            3.2591    -4.8098     3.9627 C.2     
  25 C25            3.2295    -5.3554     2.7425 C.2     
  26 S26            3.8122    -6.0322     5.1101 S.3     
  27 C27            3.9502    -7.1700     3.8442 C.2     
  28 N28            3.6117    -6.6340     2.7277 N.2     
  29 C29            4.4073    -8.5961     4.0125 C.3     
  30 H30            1.6209     2.7042    -0.6584 H       
  31 H31           -2.5516     0.6548     0.5683 H       
  32 H32           -4.5358     2.1075     0.4951 H       
  33 H33           -4.3158     4.4642    -0.1759 H       
  34 H34           -2.1125     5.3804    -0.7749 H       
  35 H35           -0.1167     3.9436    -0.7002 H       
  36 H36            3.5874     2.2769    -1.7405 H       
  37 H37            6.0172     2.1938    -2.1141 H       
  38 H38            7.3784     0.4703    -1.0056 H       
  39 H39            6.3191    -1.1795     0.4803 H       
  40 H40            3.8917    -1.1087     0.8720 H       
  41 H41            1.0144    -2.4790     0.2284 H       
  42 H42            2.6991    -1.9732    -0.0440 H       
  43 H43            1.8393    -4.6431     1.2649 H       
  44 H44            3.5281    -4.1316     0.9999 H       
  45 H45            3.6170    -2.7155     4.2398 H       
  46 H46            1.9273    -3.2239     4.5127 H       
  47 H47            3.5452    -9.2330     4.2106 H       
  48 H48            4.9030    -8.9288     3.1005 H       
  49 H49            5.1044    -8.6579     4.8482 H       
@<TRIPOS>BOND
   1    1    2 2
   2    1    3 1
   3    1    6 1
   4    2    5 1
   5    3    4 2
   6    3   30 1
   7    4    5 1
   8    4   12 1
   9    5   18 1
  10    6    7 ar
  11    6   11 ar
  12    7    8 ar
  13    7   31 1
  14    8    9 ar
  15    8   32 1
  16    9   10 ar
  17    9   33 1
  18   10   11 ar
  19   10   34 1
  20   11   35 1
  21   12   13 ar
  22   12   17 ar
  23   13   14 ar
  24   13   36 1
  25   14   15 ar
  26   14   37 1
  27   15   16 ar
  28   15   38 1
  29   16   17 ar
  30   16   39 1
  31   17   40 1
  32   18   19 1
  33   18   41 1
  34   18   42 1
  35   19   20 am
  36   19   22 2
  37   20   23 1
  38   20   21 1
  39   21   25 1
  40   21   43 1
  41   21   44 1
  42   23   24 1
  43   23   45 1
  44   23   46 1
  45   24   25 2
  46   24   26 1
  47   25   28 1
  48   26   27 1
  49   27   28 2
  50   27   29 1
  51   29   47 1
  52   29   48 1
  53   29   49 1

#	End of record

