#	Name: ASD05430024
#	Creating user name:	WinNT
#	Creation time:	15. 06. 2019 20:59

#	Modifying user name:	WinNT
#	Modification time:	15. 06. 2019 20:59

#	Program:	/corina/corina34_cracker 3.40 0067  02.08.2006

@<TRIPOS>MOLECULE
ASD05430024
  65   70    0    0    0
SMALL
NO_CHARGES


@<TRIPOS>ATOM
   1 C1             0.0585     1.1783     0.4014 C.ar    
   2 C2             0.0200    -0.0134    -0.3218 C.ar    
   3 C3             1.1673    -0.4900    -0.9431 C.ar    
   4 C4             2.3489     0.2121    -0.8474 C.ar    
   5 C5             2.3950     1.4081    -0.1237 C.ar    
   6 C6             1.2402     1.8881     0.5013 C.ar    
   7 C7             4.8635    -0.0018     0.2153 C.3     
   8 C8             4.8270     1.5012     0.0670 C.2     
   9 C9             3.6566     2.1597    -0.0203 C.2     
  10 C10            6.2035    -0.4604     0.7730 C.3     
  11 C11            6.8492     0.5804     1.6813 C.3     
  12 N12            7.0884     1.8060     0.9203 N.pl3   
  13 C13            6.1093     2.2256     0.0211 C.2     
  14 N14           -1.1790    -0.7321    -0.4216 N.pl3   
  15 C15           -1.9953    -1.0871     0.6043 C.2     
  16 C16           -1.7524    -1.2044    -1.5737 C.2     
  17 C17           -2.8884    -1.8325    -1.2149 C.2     
  18 N18           -3.0118    -1.7458     0.1178 N.2     
  19 C19           -3.8560    -2.5114    -2.1498 C.3     
  20 C20           -0.9555     2.8715     1.7278 C.3     
  21 O21           -1.0676     1.6448     1.0035 O.3     
  22 C22            8.2995     2.6081     1.0810 C.3     
  23 C23            8.6897     3.1749    -0.2884 C.3     
  24 O24            7.5803     3.8491    -0.8733 O.3     
  25 N25            6.3369     3.1881    -0.8098 N.2     
  26 C26            8.0356     3.7388     2.0417 C.ar    
  27 C27            8.9980     4.0979     2.9669 C.ar    
  28 C28            8.7572     5.1349     3.8481 C.ar    
  29 C29            7.5516     5.8143     3.8041 C.ar    
  30 C30            6.5884     5.4537     2.8771 C.ar    
  31 C31            6.8335     4.4198     1.9934 C.ar    
  32 F32            7.3149     6.8279     4.6654 F       
  33 C33            6.0312    -1.7861     1.5349 C.3     
  34 O34            6.7848    -2.7848     0.8259 O.3     
  35 C35            7.8467    -2.0967     0.1299 C.3     
  36 C36            7.1634    -0.8047    -0.3878 C.3     
  37 H37            1.1331    -1.4134    -1.5022 H       
  38 H38            3.2396    -0.1612    -1.3308 H       
  39 H39            1.2714     2.8114     1.0608 H       
  40 H40            4.0681    -0.3144     0.8918 H       
  41 H41            4.7048    -0.4620    -0.7599 H       
  42 H42            3.6429     3.2396    -0.0145 H       
  43 H43            6.1844     0.7956     2.5178 H       
  44 H44            7.7967     0.1960     2.0589 H       
  45 H45           -1.8307    -0.8625     1.6478 H       
  46 H46           -1.3675    -1.0935    -2.5767 H       
  47 H47           -3.5699    -3.5560    -2.2730 H       
  48 H48           -4.8620    -2.4569    -1.7338 H       
  49 H49           -3.8358    -2.0124    -3.1187 H       
  50 H50           -1.9234     3.1296     2.1573 H       
  51 H51           -0.2226     2.7563     2.5264 H       
  52 H52           -0.6348     3.6644     1.0520 H       
  53 H53            9.1062     1.9823     1.4627 H       
  54 H54            9.5157     3.8757    -0.1675 H       
  55 H55            9.0024     2.3598    -0.9412 H       
  56 H56            9.9382     3.5676     3.0013 H       
  57 H57            9.5091     5.4151     4.5710 H       
  58 H58            5.6476     5.9829     2.8419 H       
  59 H59            6.0823     4.1383     1.2702 H       
  60 H60            6.4148    -1.6830     2.5500 H       
  61 H61            4.9778    -2.0650     1.5605 H       
  62 H62            8.6594    -1.8532     0.8142 H       
  63 H63            8.2121    -2.6976    -0.7029 H       
  64 H64            6.6095    -0.9987    -1.3063 H       
  65 H65            7.8949    -0.0104    -0.5365 H       
@<TRIPOS>BOND
   1    1    2 ar
   2    1    6 ar
   3    1   21 1
   4    2    3 ar
   5    2   14 1
   6    3    4 ar
   7    3   37 1
   8    4    5 ar
   9    4   38 1
  10    5    6 ar
  11    5    9 1
  12    6   39 1
  13    7    8 1
  14    7   10 1
  15    7   40 1
  16    7   41 1
  17    8    9 2
  18    8   13 1
  19    9   42 1
  20   10   11 1
  21   10   33 1
  22   10   36 1
  23   11   12 1
  24   11   43 1
  25   11   44 1
  26   12   13 1
  27   12   22 1
  28   13   25 2
  29   14   15 1
  30   14   16 1
  31   15   18 2
  32   15   45 1
  33   16   17 2
  34   16   46 1
  35   17   18 1
  36   17   19 1
  37   19   47 1
  38   19   48 1
  39   19   49 1
  40   20   21 1
  41   20   50 1
  42   20   51 1
  43   20   52 1
  44   22   23 1
  45   22   26 1
  46   22   53 1
  47   23   24 1
  48   23   54 1
  49   23   55 1
  50   24   25 1
  51   26   27 ar
  52   26   31 ar
  53   27   28 ar
  54   27   56 1
  55   28   29 ar
  56   28   57 1
  57   29   30 ar
  58   29   32 1
  59   30   31 ar
  60   30   58 1
  61   31   59 1
  62   33   34 1
  63   33   60 1
  64   33   61 1
  65   34   35 1
  66   35   36 1
  67   35   62 1
  68   35   63 1
  69   36   64 1
  70   36   65 1

#	End of record

