#	Name: ASD01150992
#	Creating user name:	WinNT
#	Creation time:	15. 06. 2019 19:05

#	Modifying user name:	WinNT
#	Modification time:	15. 06. 2019 19:05

#	Program:	/corina/corina34_cracker 3.40 0067  02.08.2006

@<TRIPOS>MOLECULE
ASD01150992
  47   49    0    0    0
SMALL
NO_CHARGES


@<TRIPOS>ATOM
   1 C1            -0.0167     1.3804     0.0096 C.2     
   2 C2             0.0021    -0.0041     0.0020 C.2     
   3 N3            -1.2982    -0.4141     0.0122 N.2     
   4 C4            -2.0634     0.6336     0.0251 C.2     
   5 O5            -1.3109     1.7455     0.0298 O.3     
   6 C6            -3.5700     0.6064     0.0386 C.3     
   7 C7            -4.0669     0.5896     1.4856 C.3     
   8 N8             1.0787     2.2213     0.0037 N.am    
   9 C9             1.1894    -0.8623    -0.0143 C.2     
  10 O10            1.0517    -2.2042    -0.0202 O.3     
  11 O11            2.2994    -0.3649    -0.0227 O.2     
  12 C12            2.2713    -2.9920    -0.0365 C.3     
  13 C13            1.9169    -4.4804    -0.0410 C.3     
  14 C14            0.9025     3.5575     0.0125 C.2     
  15 O15           -0.2210     4.0226     0.0258 O.2     
  16 C16            2.0713     4.4548     0.0062 C.2     
  17 C17            2.0449     5.8356     0.0139 C.2     
  18 N18            3.3209     6.2619     0.0040 N.pl3   
  19 N19            4.1617     5.1434    -0.0101 N.2     
  20 C20            3.4296     4.0635    -0.0027 C.2     
  21 C21            3.7377     7.6002     0.0065 C.ar    
  22 C22            4.8907     7.9682     0.6868 C.ar    
  23 C23            5.2993     9.2874     0.6878 C.ar    
  24 C24            4.5601    10.2424     0.0119 C.ar    
  25 C25            3.4102     9.8782    -0.6666 C.ar    
  26 C26            3.0012     8.5592    -0.6761 C.ar    
  27 Cl27           5.0759    11.9000     0.0155 Cl      
  28 C28            0.8138     6.7046     0.0299 C.3     
  29 F29            0.4204     6.9801    -1.2841 F       
  30 F30           -0.2196     6.0370     0.6958 F       
  31 F31            1.0978     7.9034     0.6927 F       
  32 H32           -3.9539     1.4924    -0.4671 H       
  33 H33           -3.9220    -0.2872    -0.4768 H       
  34 H34           -5.1567     0.5700     1.4953 H       
  35 H35           -3.6830    -0.2964     1.9913 H       
  36 H36           -3.7150     1.4832     2.0010 H       
  37 H37            1.9749     1.8503    -0.0069 H       
  38 H38            2.8464    -2.7527    -0.9309 H       
  39 H39            2.8641    -2.7623     0.8489 H       
  40 H40            1.3418    -4.7196     0.8535 H       
  41 H41            1.3241    -4.7101    -0.9264 H       
  42 H42            2.8325    -5.0718    -0.0532 H       
  43 H43            3.7970     3.0479    -0.0095 H       
  44 H44            5.4675     7.2234     1.2150 H       
  45 H45            6.1961     9.5741     1.2168 H       
  46 H46            2.8349    10.6254    -1.1931 H       
  47 H47            2.1039     8.2754    -1.2060 H       
@<TRIPOS>BOND
   1    1    2 2
   2    1    8 1
   3    1    5 1
   4    2    3 1
   5    2    9 1
   6    3    4 2
   7    4    5 1
   8    4    6 1
   9    6    7 1
  10    6   32 1
  11    6   33 1
  12    7   34 1
  13    7   35 1
  14    7   36 1
  15    8   14 am
  16    8   37 1
  17    9   10 1
  18    9   11 2
  19   10   12 1
  20   12   13 1
  21   12   38 1
  22   12   39 1
  23   13   40 1
  24   13   41 1
  25   13   42 1
  26   14   15 2
  27   14   16 1
  28   16   17 2
  29   16   20 1
  30   17   18 1
  31   17   28 1
  32   18   19 1
  33   18   21 1
  34   19   20 2
  35   20   43 1
  36   21   22 ar
  37   21   26 ar
  38   22   23 ar
  39   22   44 1
  40   23   24 ar
  41   23   45 1
  42   24   25 ar
  43   24   27 1
  44   25   26 ar
  45   25   46 1
  46   26   47 1
  47   28   29 1
  48   28   30 1
  49   28   31 1

#	End of record

