#	Name: ASD03091074
#	Creating user name:	WinNT
#	Creation time:	15. 06. 2019 20:30

#	Modifying user name:	WinNT
#	Modification time:	15. 06. 2019 20:30

#	Program:	/corina/corina34_cracker 3.40 0067  02.08.2006

@<TRIPOS>MOLECULE
ASD03091074
  30   31    0    0    0
SMALL
NO_CHARGES


@<TRIPOS>ATOM
   1 C1            -0.0931     1.2481     0.5804 C.ar    
   2 C2             0.0015    -0.0050    -0.0110 C.ar    
   3 C3            -1.1186    -0.5779    -0.6002 C.ar    
   4 C4            -2.3217     0.0996    -0.5961 C.ar    
   5 C5            -2.4124     1.3476    -0.0067 C.ar    
   6 C6            -1.3010     1.9180     0.5860 C.ar    
   7 N7             1.2213    -0.6881    -0.0137 N.am    
   8 C8             1.2411    -2.0324     0.0806 C.2     
   9 C9             2.4648    -2.7324    -0.0415 C.2     
  10 O10            0.2056    -2.6448     0.2709 O.2     
  11 C11            2.4847    -4.0854     0.0535 C.2     
  12 H12            3.3830    -2.1893    -0.2102 H       
  13 C13            3.7092    -4.7858    -0.0687 C.2     
  14 H14            1.5665    -4.6284     0.2222 H       
  15 C15            3.8745    -6.1533     0.0068 C.2     
  16 C16            5.2445    -6.4001    -0.1692 C.2     
  17 C17            5.8476    -5.2028    -0.3410 C.2     
  18 O18            4.9219    -4.2352    -0.2855 O.3     
  19 C19            1.1193     1.8735     1.2207 C.3     
  20 H20           -1.0483    -1.5521    -1.0612 H       
  21 H21           -3.1929    -0.3452    -1.0540 H       
  22 H22           -3.3544     1.8757    -0.0056 H       
  23 H23           -1.3752     2.8926     1.0454 H       
  24 H24            2.0534    -0.1946    -0.0835 H       
  25 H25            3.1013    -6.8895     0.1699 H       
  26 H26            5.7271    -7.3663    -0.1672 H       
  27 H27            6.9048    -5.0506    -0.5010 H       
  28 H28            1.6569     2.4653     0.4798 H       
  29 H29            0.8049     2.5178     2.0417 H       
  30 H30            1.7730     1.0898     1.6035 H       
@<TRIPOS>BOND
   1    1    2 ar
   2    1   19 1
   3    1    6 ar
   4    2    3 ar
   5    2    7 1
   6    3    4 ar
   7    3   20 1
   8    4    5 ar
   9    4   21 1
  10    5    6 ar
  11    5   22 1
  12    6   23 1
  13    7    8 am
  14    7   24 1
  15    8    9 1
  16    8   10 2
  17    9   11 2
  18    9   12 1
  19   11   13 1
  20   11   14 1
  21   13   15 2
  22   13   18 1
  23   15   16 1
  24   15   25 1
  25   16   17 2
  26   16   26 1
  27   17   18 1
  28   17   27 1
  29   19   28 1
  30   19   29 1
  31   19   30 1

#	End of record

