#	Name: ASD01811098
#	Creating user name:	WinNT
#	Creation time:	15. 06. 2019 19:26

#	Modifying user name:	WinNT
#	Modification time:	15. 06. 2019 19:26

#	Program:	/corina/corina34_cracker 3.40 0067  02.08.2006

@<TRIPOS>MOLECULE
ASD01811098
  53   56    0    0    0
SMALL
NO_CHARGES


@<TRIPOS>ATOM
   1 C1            -1.9066     1.4014     0.0374 C.2     
   2 C2            -2.0105     0.0627     0.0827 C.2     
   3 N3            -0.9003    -0.7284    -0.0086 N.pl3   
   4 C4             0.3412    -0.2442    -0.1331 C.2     
   5 C5             0.5525     1.1196    -0.1788 C.2     
   6 C6            -0.6215     1.9978    -0.0941 C.2     
   7 C7            -1.0779    -2.1820     0.0326 C.3     
   8 C8            -0.8981    -2.6702     1.4469 C.ar    
   9 O9            -0.4970     3.2118    -0.1282 O.2     
  10 C10            1.9087     1.6745    -0.3124 C.2     
  11 O11            2.8660     0.9291    -0.3846 O.2     
  12 O12            2.0895     3.0095    -0.3547 O.3     
  13 C13           -2.0040    -2.8622     2.2554 C.ar    
  14 C14           -1.8452    -3.3091     3.5515 C.ar    
  15 C15           -0.5678    -3.5671     4.0453 C.ar    
  16 C16            0.5428    -3.3719     3.2262 C.ar    
  17 C17            0.3718    -2.9300     1.9299 C.ar    
  18 C18           -0.3907    -4.0471     5.4375 C.ar    
  19 C19            0.3995    -5.1706     5.6977 C.ar    
  20 C20            0.5593    -5.6122     7.0015 C.ar    
  21 C21           -0.0606    -4.9435     8.0398 C.ar    
  22 C22           -0.8435    -3.8311     7.7852 C.ar    
  23 C23           -1.0065    -3.3771     6.4922 C.ar    
  24 C24           -3.0929     2.3253     0.1129 C.3     
  25 C25           -4.3117     1.5969     0.6750 C.3     
  26 C26           -4.4910     0.2908    -0.1089 C.3     
  27 C27           -3.3353    -0.6415     0.2447 C.3     
  28 O28           -2.7743     3.4316     0.9594 O.3     
  29 O29            1.0081    -5.8274     4.6761 O.3     
  30 C30            1.7999    -6.9669     5.0177 C.3     
  31 H31            1.1797    -0.9218    -0.1978 H       
  32 H32           -2.0795    -2.4356    -0.3147 H       
  33 H33           -0.3386    -2.6568    -0.6124 H       
  34 H34            2.9987     3.3268    -0.4432 H       
  35 H35           -2.9934    -2.6616     1.8718 H       
  36 H36           -2.7093    -3.4583     4.1820 H       
  37 H37            1.5351    -3.5699     3.6038 H       
  38 H38            1.2317    -2.7784     1.2943 H       
  39 H39            1.1688    -6.4800     7.2063 H       
  40 H40            0.0660    -5.2909     9.0545 H       
  41 H41           -1.3252    -3.3139     8.6019 H       
  42 H42           -1.6179    -2.5084     6.2974 H       
  43 H43           -3.3246     2.6941    -0.8863 H       
  44 H44           -4.1529     1.3739     1.7301 H       
  45 H45           -5.1985     2.2201     0.5594 H       
  46 H46           -5.4370    -0.1758     0.1656 H       
  47 H47           -4.4804     0.4998    -1.1787 H       
  48 H48           -3.3622    -1.5111    -0.4119 H       
  49 H49           -3.4429    -0.9700     1.2785 H       
  50 H50           -3.4925     4.0718     1.0569 H       
  51 H51            2.6023    -6.6634     5.6901 H       
  52 H52            1.1734    -7.7097     5.5115 H       
  53 H53            2.2278    -7.3966     4.1120 H       
@<TRIPOS>BOND
   1    1    2 2
   2    1   24 1
   3    1    6 1
   4    2    3 1
   5    2   27 1
   6    3    4 1
   7    3    7 1
   8    4    5 2
   9    4   31 1
  10    5    6 1
  11    5   10 1
  12    6    9 2
  13    7    8 1
  14    7   32 1
  15    7   33 1
  16    8   13 ar
  17    8   17 ar
  18   10   11 2
  19   10   12 1
  20   12   34 1
  21   13   14 ar
  22   13   35 1
  23   14   15 ar
  24   14   36 1
  25   15   16 ar
  26   15   18 1
  27   16   17 ar
  28   16   37 1
  29   17   38 1
  30   18   19 ar
  31   18   23 ar
  32   19   20 ar
  33   19   29 1
  34   20   21 ar
  35   20   39 1
  36   21   22 ar
  37   21   40 1
  38   22   23 ar
  39   22   41 1
  40   23   42 1
  41   24   25 1
  42   24   28 1
  43   24   43 1
  44   25   26 1
  45   25   44 1
  46   25   45 1
  47   26   27 1
  48   26   46 1
  49   26   47 1
  50   27   48 1
  51   27   49 1
  52   28   50 1
  53   29   30 1
  54   30   51 1
  55   30   52 1
  56   30   53 1

#	End of record

