#	Name: ASD02588135
#	Creating user name:	WinNT
#	Creation time:	15. 06. 2019 20:25

#	Modifying user name:	WinNT
#	Modification time:	15. 06. 2019 20:25

#	Program:	/corina/corina34_cracker 3.40 0067  02.08.2006

@<TRIPOS>MOLECULE
ASD02588135
  42   43    0    0    0
SMALL
NO_CHARGES


@<TRIPOS>ATOM
   1 C1            -0.0166     1.3752     0.0096 C.2     
   2 N2             0.0021    -0.0041     0.0020 N.pl3   
   3 N3            -1.2240    -0.6850     0.0094 N.2     
   4 C4            -2.3436    -0.0143     0.0230 C.2     
   5 N5            -2.3743     1.3164     0.0305 N.2     
   6 C6            -1.2623     2.0348     0.0302 C.2     
   7 C7             1.3088     1.8128    -0.0007 C.2     
   8 C8             2.1125     0.6551    -0.0146 C.2     
   9 C9             1.2899    -0.4212    -0.0125 C.2     
  10 N10           -1.3221     3.4146     0.0385 N.pl3   
  11 C11            1.7387    -1.8597    -0.0245 C.3     
  12 O12            0.7022    -2.7112    -0.5585 O.3     
  13 C13            0.9667    -4.0422    -0.0843 C.3     
  14 C14            1.7444    -3.9107     1.2395 C.3     
  15 C15            1.9283    -2.3844     1.4216 C.3     
  16 C16           -0.3517    -4.7798     0.1578 C.3     
  17 O17           -1.0730    -4.8822    -1.0715 O.3     
  18 C18            1.7627     3.1709     0.0018 C.1     
  19 C19            2.1349     4.2844     0.0039 C.1     
  20 N20            1.7715    -4.7707    -1.0681 N.2     
  21 N21            1.3671    -4.9530    -2.1009 N.1     
  22 N22            0.9627    -5.1353    -3.1336 N.pl3   
  23 O23            3.0139    -4.5592     1.1403 O.3     
  24 *24            3.4902    -5.0775     2.3621 Du      
  25 H25           -3.2770    -0.5576     0.0281 H       
  26 H26            3.1922     0.6304    -0.0250 H       
  27 H27           -2.1823     3.8628     0.0445 H       
  28 H28           -0.5038     3.9355     0.0382 H       
  29 H29            2.6587    -1.9687    -0.5987 H       
  30 H30            1.1661    -4.3264     2.0646 H       
  31 H31            2.9277    -2.1543     1.7909 H       
  32 H32            1.1663    -1.9773     2.0861 H       
  33 H33           -0.1440    -5.7787     0.5415 H       
  34 H34           -0.9484    -4.2284     0.8844 H       
  35 H35           -1.9212    -5.3397    -0.9929 H       
  36 H36            2.4677     5.2802     0.0058 H       
  37 C37            9.0174    12.2677     8.4946 C.3     
  38 O38            9.0367    10.8389     8.4868 O.3     
  39 *39            9.6778    10.2802     7.3621 Du      
  40 H40           10.0400    12.6450     8.4869 H       
  41 H41            8.4902    12.6288     7.6116 H       
  42 H42            8.5072    12.6193     9.3914 H       
@<TRIPOS>BOND
   1    1    2 1
   2    1    7 2
   3    1    6 1
   4    2    3 1
   5    2    9 1
   6    3    4 2
   7    4    5 1
   8    4   25 1
   9    5    6 2
  10    6   10 1
  11    7    8 1
  12    7   18 1
  13    8    9 2
  14    8   26 1
  15    9   11 1
  16   10   27 1
  17   10   28 1
  18   11   12 1
  19   11   15 1
  20   11   29 1
  21   12   13 1
  22   13   16 1
  23   13   20 1
  24   13   14 1
  25   14   15 1
  26   14   23 1
  27   14   30 1
  28   15   31 1
  29   15   32 1
  30   16   17 1
  31   16   33 1
  32   16   34 1
  33   17   35 1
  34   18   19 3
  35   19   36 1
  36   20   21 2
  37   21   22 2
  38   23   24 1
  39   37   38 1
  40   37   40 1
  41   37   41 1
  42   37   42 1
  43   38   39 1

#	End of record

