#	Name: ASD07480048
#	Creating user name:	WinNT
#	Creation time:	15. 06. 2019 21:11

#	Modifying user name:	WinNT
#	Modification time:	15. 06. 2019 21:11

#	Program:	/corina/corina34_cracker 3.40 0067  02.08.2006

@<TRIPOS>MOLECULE
ASD07480048
  86   90    0    0    0
SMALL
NO_CHARGES


@<TRIPOS>ATOM
   1 C1            -0.1086     1.1416     0.3517 C.ar    
   2 C2            -0.0391    -0.2409     0.3673 C.ar    
   3 C3             1.1815    -0.8781     0.2632 C.ar    
   4 C4             2.3437    -0.1299     0.1421 C.ar    
   5 C5             2.2736     1.2650     0.1260 C.ar    
   6 C6             1.0421     1.8955     0.2316 C.ar    
   7 N7             3.6861    -0.4746     0.0215 N.pl3   
   8 C8             4.4143     0.6711    -0.0657 C.2     
   9 N9             3.5748     1.7397    -0.0042 N.pl3   
  10 N10            5.7345     0.7360    -0.1905 N.2     
  11 C11            6.3314     1.9187    -0.3771 C.2     
  12 O12            6.6646     2.2631    -1.4976 O.2     
  13 C13            6.5871     2.8090     0.7776 C.ar    
  14 C14            7.1156     4.0844     0.5745 C.ar    
  15 C15            7.3516     4.9101     1.6531 C.ar    
  16 C16            7.0651     4.4749     2.9378 C.ar    
  17 C17            6.5400     3.2087     3.1448 C.ar    
  18 C18            6.2951     2.3777     2.0722 C.ar    
  19 F19            7.2989     5.2873     3.9917 F       
  20 C20           -1.3011    -1.0541     0.4988 C.3     
  21 N21           -1.8406    -1.3403    -0.8372 N.3     
  22 C22           -2.9295    -2.3229    -0.7656 C.3     
  23 C23           -3.3677    -2.7049    -2.1813 C.3     
  24 C24           -3.8362    -1.4491    -2.9216 C.3     
  25 C25           -2.6997    -0.4231    -2.9399 C.3     
  26 C26           -2.2809    -0.1073    -1.5022 C.3     
  27 C27           -4.2183    -1.8146    -4.3573 C.3     
  28 C28           -4.5669    -0.5420    -5.1320 C.3     
  29 C29           -3.0406    -2.5178    -5.0352 C.3     
  30 O30           -5.3495    -2.6876    -4.3417 O.3     
  31 C31            4.2233    -1.8372    -0.0064 C.3     
  32 C32            4.9614    -2.0676    -1.3266 C.3     
  33 C33            5.1945    -2.0266     1.1606 C.3     
  34 C34            6.3427    -1.0231     1.0364 C.3     
  35 C35            7.0808    -1.2534    -0.2838 C.3     
  36 C36            6.1097    -1.0641    -1.4508 C.3     
  37 C37            8.2118    -0.2650    -0.4061 C.2     
  38 N38            8.9401    -0.2110    -1.5389 N.am    
  39 O39            8.4667     0.4819     0.5148 O.2     
  40 C40            9.9666     0.8215    -1.7013 C.3     
  41 C41           11.3018     0.3021    -1.1644 C.3     
  42 C42           10.1128     1.1665    -3.1847 C.3     
  43 H43           -1.0674     1.6326     0.4294 H       
  44 H44            1.2316    -1.9568     0.2765 H       
  45 H45            0.9835     2.9738     0.2192 H       
  46 H46            3.8382     2.6724    -0.0446 H       
  47 H47            7.3397     4.4240    -0.4259 H       
  48 H48            7.7606     5.8974     1.4970 H       
  49 H49            6.3188     2.8740     4.1475 H       
  50 H50            5.8860     1.3915     2.2344 H       
  51 H51           -1.0780    -1.9911     1.0089 H       
  52 H52           -2.0366    -0.4928     1.0750 H       
  53 H53           -2.5819    -3.2126    -0.2405 H       
  54 H54           -3.7738    -1.8909    -0.2283 H       
  55 H55           -2.5276    -3.1496    -2.7147 H       
  56 H56           -4.1864    -3.4224    -2.1277 H       
  57 H57           -4.7008    -1.0259    -2.4101 H       
  58 H58           -1.8491    -0.8319    -3.4852 H       
  59 H59           -3.0413     0.4896    -3.4283 H       
  60 H60           -3.1282     0.3143    -0.9614 H       
  61 H61           -1.4622     0.6123    -1.5122 H       
  62 H62           -3.7040     0.1239    -5.1439 H       
  63 H63           -4.8390    -0.8024    -6.1548 H       
  64 H64           -5.4058    -0.0410    -4.6491 H       
  65 H65           -2.7923    -3.4244    -4.4833 H       
  66 H66           -3.3128    -2.7782    -6.0580 H       
  67 H67           -2.1778    -1.8519    -5.0471 H       
  68 H68           -5.2001    -3.5164    -3.8664 H       
  69 H69            3.4053    -2.5521     0.0821 H       
  70 H70            5.3611    -3.0814    -1.3474 H       
  71 H71            4.2695    -1.9327    -2.1580 H       
  72 H72            4.6687    -1.8625     2.1012 H       
  73 H73            5.5942    -3.0404     1.1399 H       
  74 H74            5.9431    -0.0092     1.0572 H       
  75 H75            7.0346    -1.1579     1.8678 H       
  76 H76            7.4805    -2.2673    -0.3045 H       
  77 H77            6.6355    -1.2282    -2.3914 H       
  78 H78            5.7100    -0.0502    -1.4301 H       
  79 H79            8.7845    -0.8558    -2.2466 H       
  80 H80            9.6749     1.7141    -1.1477 H       
  81 H81           11.6372    -0.5366    -1.7745 H       
  82 H82           12.0440     1.0995    -1.2034 H       
  83 H83           11.1755    -0.0265    -0.1328 H       
  84 H84            9.1616     1.5365    -3.5672 H       
  85 H85           10.8766     1.9347    -3.3055 H       
  86 H86           10.4045     0.2739    -3.7382 H       
@<TRIPOS>BOND
   1    1    2 ar
   2    1    6 ar
   3    1   43 1
   4    2    3 ar
   5    2   20 1
   6    3    4 ar
   7    3   44 1
   8    4    5 ar
   9    4    7 1
  10    5    6 ar
  11    5    9 1
  12    6   45 1
  13    7    8 1
  14    7   31 1
  15    8    9 1
  16    8   10 2
  17    9   46 1
  18   10   11 1
  19   11   12 2
  20   11   13 1
  21   13   14 ar
  22   13   18 ar
  23   14   15 ar
  24   14   47 1
  25   15   16 ar
  26   15   48 1
  27   16   17 ar
  28   16   19 1
  29   17   18 ar
  30   17   49 1
  31   18   50 1
  32   20   21 1
  33   20   51 1
  34   20   52 1
  35   21   22 1
  36   21   26 1
  37   22   23 1
  38   22   53 1
  39   22   54 1
  40   23   24 1
  41   23   55 1
  42   23   56 1
  43   24   25 1
  44   24   27 1
  45   24   57 1
  46   25   26 1
  47   25   58 1
  48   25   59 1
  49   26   60 1
  50   26   61 1
  51   27   28 1
  52   27   29 1
  53   27   30 1
  54   28   62 1
  55   28   63 1
  56   28   64 1
  57   29   65 1
  58   29   66 1
  59   29   67 1
  60   30   68 1
  61   31   32 1
  62   31   33 1
  63   31   69 1
  64   32   36 1
  65   32   70 1
  66   32   71 1
  67   33   34 1
  68   33   72 1
  69   33   73 1
  70   34   35 1
  71   34   74 1
  72   34   75 1
  73   35   36 1
  74   35   37 1
  75   35   76 1
  76   36   77 1
  77   36   78 1
  78   37   38 am
  79   37   39 2
  80   38   40 1
  81   38   79 1
  82   40   41 1
  83   40   42 1
  84   40   80 1
  85   41   81 1
  86   41   82 1
  87   41   83 1
  88   42   84 1
  89   42   85 1
  90   42   86 1

#	End of record

