#	Name: ASD01680075
#	Creating user name:	WinNT
#	Creation time:	15. 06. 2019 19:22

#	Modifying user name:	WinNT
#	Modification time:	15. 06. 2019 19:22

#	Program:	/corina/corina34_cracker 3.40 0067  02.08.2006

@<TRIPOS>MOLECULE
ASD01680075
  88   91    0    0    0
SMALL
NO_CHARGES


@<TRIPOS>ATOM
   1 N1            -1.1482     0.1491    -0.5653 N.am    
   2 C2            -1.0076    -1.2556    -0.9899 C.3     
   3 C3             0.1922    -1.7983    -0.1740 C.3     
   4 C4             1.1332    -0.5650    -0.1459 C.3     
   5 C5             0.1480     0.6194    -0.0550 C.3     
   6 C6            -2.2765     0.8826    -0.6382 C.2     
   7 O7            -3.2644     0.4255    -1.1782 O.2     
   8 O8            -2.3091     2.1218    -0.1127 O.3     
   9 C9            -2.2771    -2.0420    -0.6571 C.3     
  10 N10           -2.6769    -1.7623     0.7242 N.pl3   
  11 C11           -3.8589    -2.2937     1.2269 C.ar    
  12 C12           -4.6577    -3.0906     0.4127 C.ar    
  13 C13           -5.8310    -3.6128     0.9257 C.ar    
  14 C14           -6.1677    -3.3197     2.2408 C.ar    
  15 C15           -5.3283    -2.5220     2.9919 C.ar    
  16 N16           -4.2118    -2.0416     2.4778 N.ar    
  17 O17            1.9839    -0.6042     1.0016 O.3     
  18 C18            3.2542     0.0201     0.8049 C.3     
  19 C19            4.0643    -0.0794     2.0717 C.2     
  20 N20            5.3053     0.4441     2.1210 N.am    
  21 O21            3.5997    -0.6307     3.0470 O.2     
  22 C22            5.8666     1.1100     0.9429 C.3     
  23 C23            6.0928     0.3474     3.3525 C.3     
  24 C24            6.9150    -0.9428     3.3320 C.3     
  25 N25            7.7279    -0.9846     2.1140 N.am    
  26 S26            8.0150    -2.4304     1.3594 S.o2    
  27 O27            8.7927    -2.1344     0.2075 O.2     
  28 O28            8.4376    -3.3342     2.3712 O.2     
  29 C29            6.4653    -3.0295     0.7728 C.ar    
  30 C30            6.0364    -2.7059    -0.5008 C.ar    
  31 C31            4.8205    -3.1758    -0.9610 C.ar    
  32 C32            4.0338    -3.9697    -0.1476 C.ar    
  33 C33            4.4630    -4.2941     1.1257 C.ar    
  34 C34            5.6809    -3.8277     1.5843 C.ar    
  35 C35            6.1512    -4.1855     2.9706 C.3     
  36 C36            2.7078    -4.4812    -0.6489 C.3     
  37 C37            6.8941    -1.8404    -1.3876 C.3     
  38 C38            7.8163    -0.9833     4.5391 C.2     
  39 O39            9.0147    -1.0412     4.3966 O.2     
  40 O40            7.2877    -0.9551     5.7726 O.3     
  41 C41           -3.5576     2.8540    -0.2278 C.3     
  42 C42           -3.4056     4.2099     0.4122 C.ar    
  43 C43           -2.9734     5.2853    -0.3413 C.ar    
  44 C44           -2.8340     6.5290     0.2457 C.ar    
  45 C45           -3.1271     6.6974     1.5861 C.ar    
  46 C46           -3.5601     5.6223     2.3393 C.ar    
  47 C47           -3.7037     4.3795     1.7513 C.ar    
  48 H48           -0.7957    -1.3097    -2.0577 H       
  49 H49           -0.1152    -2.0783     0.8336 H       
  50 H50            0.6639    -2.6381    -0.6844 H       
  51 H51            1.7215    -0.5078    -1.0617 H       
  52 H52            0.5077     1.4484    -0.6646 H       
  53 H53            0.0448     0.9370     0.9826 H       
  54 H54           -3.0773    -1.7437    -1.3345 H       
  55 H55           -2.0839    -3.1088    -0.7705 H       
  56 H56           -2.1168    -1.2062     1.2881 H       
  57 H57           -4.3656    -3.2982    -0.6061 H       
  58 H58           -6.4712    -4.2343     0.3172 H       
  59 H59           -7.0774    -3.7117     2.6713 H       
  60 H60           -5.5864    -2.2915     4.0150 H       
  61 H61            3.7838    -0.4810    -0.0053 H       
  62 H62            3.1076     1.0694     0.5489 H       
  63 H63            5.6154     2.1703     0.9708 H       
  64 H64            6.9503     0.9933     0.9415 H       
  65 H65            5.4517     0.6619     0.0401 H       
  66 H66            6.7629     1.2041     3.4235 H       
  67 H67            5.4230     0.3378     4.2123 H       
  68 H68            6.2439    -1.8016     3.3506 H       
  69 H69            8.0979    -0.1654     1.7495 H       
  70 H70            4.4852    -2.9224    -1.9558 H       
  71 H71            3.8482    -4.9141     1.7613 H       
  72 H72            5.9353    -3.3621     3.6514 H       
  73 H73            5.6333    -5.0827     3.3097 H       
  74 H74            7.2253    -4.3706     2.9534 H       
  75 H75            2.8518    -5.4435    -1.1401 H       
  76 H76            2.0235    -4.6008     0.1910 H       
  77 H77            2.2891    -3.7692    -1.3601 H       
  78 H78            7.5654    -2.4706    -1.9709 H       
  79 H79            6.2574    -1.2668    -2.0611 H       
  80 H80            7.4800    -1.1577    -0.7720 H       
  81 H81            7.9057    -0.9831     6.5158 H       
  82 H82           -3.8118     2.9756    -1.2807 H       
  83 H83           -4.3507     2.3013     0.2760 H       
  84 H84           -2.7444     5.1536    -1.3885 H       
  85 H85           -2.4956     7.3690    -0.3428 H       
  86 H86           -3.0174     7.6690     2.0449 H       
  87 H87           -3.7888     5.7538     3.3866 H       
  88 H88           -4.0456     3.5403     2.3389 H       
@<TRIPOS>BOND
   1    1    2 1
   2    1    5 1
   3    1    6 am
   4    2    3 1
   5    2    9 1
   6    2   48 1
   7    3    4 1
   8    3   49 1
   9    3   50 1
  10    4    5 1
  11    4   17 1
  12    4   51 1
  13    5   52 1
  14    5   53 1
  15    6    7 2
  16    6    8 1
  17    8   41 1
  18    9   10 1
  19    9   54 1
  20    9   55 1
  21   10   11 1
  22   10   56 1
  23   11   12 ar
  24   11   16 ar
  25   12   13 ar
  26   12   57 1
  27   13   14 ar
  28   13   58 1
  29   14   15 ar
  30   14   59 1
  31   15   16 ar
  32   15   60 1
  33   17   18 1
  34   18   19 1
  35   18   61 1
  36   18   62 1
  37   19   20 am
  38   19   21 2
  39   20   22 1
  40   20   23 1
  41   22   63 1
  42   22   64 1
  43   22   65 1
  44   23   24 1
  45   23   66 1
  46   23   67 1
  47   24   25 1
  48   24   38 1
  49   24   68 1
  50   25   26 am
  51   25   69 1
  52   26   27 2
  53   26   28 2
  54   26   29 1
  55   29   30 ar
  56   29   34 ar
  57   30   31 ar
  58   30   37 1
  59   31   32 ar
  60   31   70 1
  61   32   33 ar
  62   32   36 1
  63   33   34 ar
  64   33   71 1
  65   34   35 1
  66   35   72 1
  67   35   73 1
  68   35   74 1
  69   36   75 1
  70   36   76 1
  71   36   77 1
  72   37   78 1
  73   37   79 1
  74   37   80 1
  75   38   39 2
  76   38   40 1
  77   40   81 1
  78   41   42 1
  79   41   82 1
  80   41   83 1
  81   42   43 ar
  82   42   47 ar
  83   43   44 ar
  84   43   84 1
  85   44   45 ar
  86   44   85 1
  87   45   46 ar
  88   45   86 1
  89   46   47 ar
  90   46   87 1
  91   47   88 1

#	End of record

