#	Name: ASD03930283
#	Creating user name:	WinNT
#	Creation time:	15. 06. 2019 20:47

#	Modifying user name:	WinNT
#	Modification time:	15. 06. 2019 20:47

#	Program:	/corina/corina34_cracker 3.40 0067  02.08.2006

@<TRIPOS>MOLECULE
ASD03930283
  26   28    0    0    0
SMALL
NO_CHARGES


@<TRIPOS>ATOM
   1 Cl1            0.0284    -0.0016     0.0684 Cl      
   2 C2            -0.0029     1.7340     0.0580 C.ar    
   3 C3            -1.2034     2.4173     0.0754 C.ar    
   4 N4            -1.2402     3.7322     0.0587 N.ar    
   5 C5            -0.1332     4.4774     0.0235 C.ar    
   6 N6            -0.2910     5.8483    -0.0568 N.3     
   7 C7             0.7663     6.6725     0.5133 C.3     
   8 N8             2.0435     6.3730    -0.1684 N.am    
   9 S9             2.5855     4.8039     0.0274 S.o2    
  10 O10            3.3014     4.4632    -1.1519 O.2     
  11 O11            3.1355     4.7162     1.3347 O.2     
  12 C12            1.1016     3.8418     0.0249 C.ar    
  13 C13            1.1802     2.4646     0.0380 C.ar    
  14 C14           -1.6080     6.2571     0.4494 C.3     
  15 C15           -2.3518     7.3512    -0.3192 C.3     
  16 C16           -2.8319     5.9005    -0.3967 C.3     
  17 H17           -2.1291     1.8615     0.1028 H       
  18 H18            0.5197     7.7255     0.3773 H       
  19 H19            0.8625     6.4558     1.5772 H       
  20 H20            2.5278     7.0338    -0.6878 H       
  21 H21            2.1379     1.9655     0.0288 H       
  22 H22           -1.7222     6.2367     1.5332 H       
  23 H23           -2.9553     8.0509     0.2589 H       
  24 H24           -1.8639     7.7676    -1.2005 H       
  25 H25           -2.6598     5.3626    -1.3289 H       
  26 H26           -3.7513     5.6459     0.1305 H       
@<TRIPOS>BOND
   1    1    2 1
   2    2   13 ar
   3    2    3 ar
   4    3    4 ar
   5    3   17 1
   6    4    5 ar
   7    5   12 ar
   8    5    6 1
   9    6    7 1
  10    6   14 1
  11    7    8 1
  12    7   18 1
  13    7   19 1
  14    8    9 am
  15    8   20 1
  16    9   10 2
  17    9   11 2
  18    9   12 1
  19   12   13 ar
  20   13   21 1
  21   14   16 1
  22   14   15 1
  23   14   22 1
  24   15   16 1
  25   15   23 1
  26   15   24 1
  27   16   25 1
  28   16   26 1

#	End of record

