#	Name: ASD01940473
#	Creating user name:	WinNT
#	Creation time:	15. 06. 2019 20:12

#	Modifying user name:	WinNT
#	Modification time:	15. 06. 2019 20:12

#	Program:	/corina/corina34_cracker 3.40 0067  02.08.2006

@<TRIPOS>MOLECULE
ASD01940473
  34   36    0    0    0
SMALL
NO_CHARGES


@<TRIPOS>ATOM
   1 N1             2.5866     3.2619     2.4494 N.pl3   
   2 N2             3.4476     2.4650     3.2131 N.2     
   3 C3             3.9087     1.4914     2.4825 C.2     
   4 C4             3.3622     1.6060     1.1824 C.ar    
   5 C5             3.5019     0.8506     0.0041 C.ar    
   6 C6             2.8040     1.2406    -1.1454 C.ar    
   7 C7             1.9758     2.3754    -1.1141 C.ar    
   8 C8             1.8417     3.1054     0.0253 C.ar    
   9 C9             2.5266     2.7372     1.1871 C.ar    
  10 C10            2.9382     0.4630    -2.3854 C.2     
  11 O11            3.7216    -0.4650    -2.4392 O.2     
  12 O12            2.1925     0.7790    -3.4632 O.3     
  13 N13            4.3198    -0.2648    -0.0189 N.pl3   
  14 C14            5.6444    -0.1532    -0.4623 C.ar    
  15 C15            6.5022    -1.2449    -0.3730 C.ar    
  16 C16            7.8081    -1.1342    -0.8110 C.ar    
  17 C17            8.2634     0.0674    -1.3402 C.ar    
  18 C18            7.4061     1.1567    -1.4285 C.ar    
  19 C19            6.0991     1.0446    -0.9960 C.ar    
  20 S20            9.9285     0.2093    -1.8989 S.3     
  21 C21           10.0185     1.9246    -2.4820 C.3     
  22 F22            6.0588    -2.4125     0.1421 F       
  23 H23            2.1114     4.0476     2.7620 H       
  24 H24            4.5937     0.7247     2.8132 H       
  25 H25            1.4406     2.6711    -2.0043 H       
  26 H26            1.2018     3.9754     0.0328 H       
  27 H27            2.3156     0.2390    -4.2558 H       
  28 H28            3.9765    -1.1241     0.2720 H       
  29 H29            8.4748    -1.9811    -0.7417 H       
  30 H30            7.7604     2.0905    -1.8395 H       
  31 H31            5.4319     1.8908    -1.0691 H       
  32 H32           11.0214     2.1288    -2.8570 H       
  33 H33            9.2939     2.0748    -3.2823 H       
  34 H34            9.7943     2.6010    -1.6572 H       
@<TRIPOS>BOND
   1    1    2 1
   2    1    9 1
   3    1   23 1
   4    2    3 2
   5    3    4 1
   6    3   24 1
   7    4    5 ar
   8    4    9 ar
   9    5    6 ar
  10    5   13 1
  11    6    7 ar
  12    6   10 1
  13    7    8 ar
  14    7   25 1
  15    8    9 ar
  16    8   26 1
  17   10   11 2
  18   10   12 1
  19   12   27 1
  20   13   14 1
  21   13   28 1
  22   14   15 ar
  23   14   19 ar
  24   15   16 ar
  25   15   22 1
  26   16   17 ar
  27   16   29 1
  28   17   18 ar
  29   17   20 1
  30   18   19 ar
  31   18   30 1
  32   19   31 1
  33   20   21 1
  34   21   32 1
  35   21   33 1
  36   21   34 1

#	End of record

