#	Name: ASD02508479
#	Creating user name:	WinNT
#	Creation time:	15. 06. 2019 20:24

#	Modifying user name:	WinNT
#	Modification time:	15. 06. 2019 20:24

#	Program:	/corina/corina34_cracker 3.40 0067  02.08.2006

@<TRIPOS>MOLECULE
ASD02508479
  35   37    0    0    0
SMALL
NO_CHARGES


@<TRIPOS>ATOM
   1 N1            -0.0196     1.3283     0.0703 N.2     
   2 C2             0.0058    -0.0065    -0.0613 C.2     
   3 C3             1.2921    -0.3999    -0.1133 C.2     
   4 N4             2.0584     0.7332    -0.0098 N.pl3   
   5 C5             1.2029     1.7834     0.1024 C.2     
   6 C6             3.4553     0.7958    -0.0176 C.ar    
   7 C7             4.1112     1.6153    -0.9307 C.ar    
   8 N8             4.1572     0.0788     0.8485 N.ar    
   9 C9             5.4776     0.1401     0.8386 C.ar    
  10 C10            6.1270     0.9509    -0.0737 C.ar    
  11 N11            5.4299     1.6720    -0.9354 N.ar    
  12 S12            1.8789    -2.0527    -0.2821 S.o2    
  13 N13            1.8803    -2.4097    -1.8991 N.am    
  14 C14            2.7304    -1.7193    -2.7660 C.ar    
  15 C15            4.0569    -1.5038    -2.4151 C.ar    
  16 C16            4.8949    -0.8211    -3.2749 C.ar    
  17 C17            4.4146    -0.3519    -4.4836 C.ar    
  18 C18            3.0943    -0.5647    -4.8362 C.ar    
  19 C19            2.2525    -1.2515    -3.9838 C.ar    
  20 O20            3.2397    -2.0391     0.1270 O.2     
  21 O21            0.8968    -2.8898     0.3128 O.2     
  22 C22            2.5751    -0.0511    -6.1544 C.3     
  23 H23           -0.8570    -0.6539    -0.1158 H       
  24 H24            1.4872     2.8206     0.2010 H       
  25 H25            3.5422     2.2040    -1.6351 H       
  26 H26            6.0499    -0.4438     1.5443 H       
  27 H27            7.2059     0.9993    -0.0793 H       
  28 H28            1.2907    -3.0983    -2.2443 H       
  29 H29            4.4325    -1.8694    -1.4708 H       
  30 H30            5.9265    -0.6532    -3.0026 H       
  31 H31            5.0719     0.1823    -5.1537 H       
  32 H32            1.2217    -1.4176    -4.2599 H       
  33 H33            2.7126    -0.8136    -6.9210 H       
  34 H34            1.5146     0.1830    -6.0608 H       
  35 H35            3.1225     0.8489    -6.4347 H       
@<TRIPOS>BOND
   1    1    2 1
   2    1    5 2
   3    2    3 2
   4    2   23 1
   5    3    4 1
   6    3   12 1
   7    4    5 1
   8    4    6 1
   9    5   24 1
  10    6    7 ar
  11    6    8 ar
  12    7   11 ar
  13    7   25 1
  14    8    9 ar
  15    9   10 ar
  16    9   26 1
  17   10   11 ar
  18   10   27 1
  19   12   13 am
  20   12   20 2
  21   12   21 2
  22   13   14 1
  23   13   28 1
  24   14   15 ar
  25   14   19 ar
  26   15   16 ar
  27   15   29 1
  28   16   17 ar
  29   16   30 1
  30   17   18 ar
  31   17   31 1
  32   18   19 ar
  33   18   22 1
  34   19   32 1
  35   22   33 1
  36   22   34 1
  37   22   35 1

#	End of record

