#	Name: ASD00170903
#	Creating user name:	WinNT
#	Creation time:	15. 06. 2019 18:32

#	Modifying user name:	WinNT
#	Modification time:	15. 06. 2019 18:32

#	Program:	/corina/corina34_cracker 3.40 0067  02.08.2006

@<TRIPOS>MOLECULE
ASD00170903
  59   63    0    0    0
SMALL
NO_CHARGES


@<TRIPOS>ATOM
   1 C1             0.6282     0.6305     0.7039 C.2     
   2 N2            -0.0337     0.0438    -0.3097 N.am    
   3 C3             0.5233     0.3527    -1.4946 C.2     
   4 C4             1.6806     1.2397    -1.2541 C.ar    
   5 C5             2.6110     1.8605    -2.0721 C.ar    
   6 C6             3.6011     2.6511    -1.5099 C.ar    
   7 C7             3.6667     2.8239    -0.1400 C.ar    
   8 C8             2.7430     2.2092     0.6909 C.ar    
   9 C9             1.7473     1.4162     0.1433 C.ar    
  10 C10           -1.1442    -0.7727    -0.1535 C.2     
  11 C11           -1.1013    -2.1424    -0.0368 C.2     
  12 C12           -2.3599    -2.7328     0.1117 C.2     
  13 C13           -3.3717    -1.8538     0.1124 C.2     
  14 S14           -2.7557    -0.2194    -0.0717 S.3     
  15 C15           -4.7999    -2.2084     0.2525 C.ar    
  16 C16           -5.5871    -1.5748     1.2156 C.ar    
  17 C17           -6.9189    -1.9082     1.3427 C.ar    
  18 C18           -7.4772    -2.8725     0.5145 C.ar    
  19 C19           -6.6976    -3.5054    -0.4443 C.ar    
  20 C20           -5.3664    -3.1737    -0.5818 C.ar    
  21 O21           -8.7904    -3.1983     0.6430 O.3     
  22 C22           -9.3002    -4.1985    -0.2411 C.3     
  23 C23          -10.7843    -4.4290     0.0511 C.3     
  24 O24          -11.5200    -3.2429    -0.2554 O.3     
  25 C25          -12.9246    -3.3522    -0.0166 C.3     
  26 C26            0.1465    -2.9110    -0.0662 C.2     
  27 C27            0.6003    -3.5357    -1.3269 C.ar    
  28 C28            1.7378    -4.3455    -1.3380 C.ar    
  29 C29            2.1562    -4.9255    -2.5170 C.ar    
  30 C30            1.4509    -4.7057    -3.6887 C.ar    
  31 C31            0.3217    -3.9034    -3.6839 C.ar    
  32 C32           -0.1101    -3.3230    -2.5100 C.ar    
  33 O33            0.8091    -3.0348     0.9475 O.2     
  34 Cl34           1.9845    -5.4384    -5.1693 Cl      
  35 C35           -2.5603    -4.2194     0.2568 C.3     
  36 Br36          -2.5030    -4.7055     2.1609 Br      
  37 O37            0.3495     0.5348     1.8820 O.2     
  38 O38            0.1393    -0.0328    -2.5803 O.2     
  39 H39            2.5651     1.7286    -3.1430 H       
  40 H40            4.3266     3.1353    -2.1468 H       
  41 H41            4.4434     3.4418     0.2860 H       
  42 H42            2.7994     2.3474     1.7605 H       
  43 H43           -5.1535    -0.8248     1.8605 H       
  44 H44           -7.5286    -1.4187     2.0878 H       
  45 H45           -7.1355    -4.2555    -1.0862 H       
  46 H46           -4.7617    -3.6632    -1.3308 H       
  47 H47           -9.1803    -3.8670    -1.2726 H       
  48 H48           -8.7518    -5.1286    -0.0923 H       
  49 H49          -11.1515    -5.2527    -0.5611 H       
  50 H50          -10.9131    -4.6742     1.1053 H       
  51 H51          -13.3362    -4.1536    -0.6302 H       
  52 H52          -13.0979    -3.5751     1.0362 H       
  53 H53          -13.4112    -2.4113    -0.2736 H       
  54 H54            2.2890    -4.5170    -0.4252 H       
  55 H55            3.0359    -5.5520    -2.5269 H       
  56 H56           -0.2242    -3.7357    -4.6006 H       
  57 H57           -0.9931    -2.7013    -2.5066 H       
  58 H58           -3.5280    -4.4980    -0.1603 H       
  59 H59           -1.7694    -4.7465    -0.2767 H       
@<TRIPOS>BOND
   1    1    2 am
   2    1    9 1
   3    1   37 2
   4    2    3 am
   5    2   10 1
   6    3    4 1
   7    3   38 2
   8    4    5 ar
   9    4    9 ar
  10    5    6 ar
  11    5   39 1
  12    6    7 ar
  13    6   40 1
  14    7    8 ar
  15    7   41 1
  16    8    9 ar
  17    8   42 1
  18   10   11 2
  19   10   14 1
  20   11   12 1
  21   11   26 1
  22   12   13 2
  23   12   35 1
  24   13   14 1
  25   13   15 1
  26   15   16 ar
  27   15   20 ar
  28   16   17 ar
  29   16   43 1
  30   17   18 ar
  31   17   44 1
  32   18   19 ar
  33   18   21 1
  34   19   20 ar
  35   19   45 1
  36   20   46 1
  37   21   22 1
  38   22   23 1
  39   22   47 1
  40   22   48 1
  41   23   24 1
  42   23   49 1
  43   23   50 1
  44   24   25 1
  45   25   51 1
  46   25   52 1
  47   25   53 1
  48   26   27 1
  49   26   33 2
  50   27   28 ar
  51   27   32 ar
  52   28   29 ar
  53   28   54 1
  54   29   30 ar
  55   29   55 1
  56   30   31 ar
  57   30   34 1
  58   31   32 ar
  59   31   56 1
  60   32   57 1
  61   35   36 1
  62   35   58 1
  63   35   59 1

#	End of record

