#	Name: ASD01884718
#	Creating user name:	WinNT
#	Creation time:	15. 06. 2019 19:48

#	Modifying user name:	WinNT
#	Modification time:	15. 06. 2019 19:48

#	Program:	/corina/corina34_cracker 3.40 0067  02.08.2006

@<TRIPOS>MOLECULE
ASD01884718
  54   57    0    0    0
SMALL
NO_CHARGES


@<TRIPOS>ATOM
   1 C1            -0.0168     1.3861     0.0097 C.2     
   2 C2             0.0021    -0.0041     0.0020 C.2     
   3 C3            -1.2207    -0.6983     0.0105 C.2     
   4 C4            -2.4061     0.0047     0.0260 C.2     
   5 N5            -2.4136     1.3531     0.0329 N.am    
   6 C6            -1.2672     2.0577     0.0312 C.2     
   7 O7            -1.3026     3.2762     0.0381 O.2     
   8 C8            -3.6942     2.0645     0.0490 C.3     
   9 C9             1.2072     2.1294     0.0020 C.1     
  10 N10            2.1781     2.7191    -0.0041 N.1     
  11 C11           -4.1259     2.3049     1.4970 C.3     
  12 C12           -5.4633     3.0478     1.5138 C.3     
  13 C13           -5.9561     3.1783     2.9563 C.3     
  14 C14           -5.2802     4.4413     0.9093 C.3     
  15 C15           -1.2348    -2.1821     0.0021 C.ar    
  16 C16           -1.7654    -2.8660    -1.0963 C.ar    
  17 C17           -1.7850    -4.2298    -1.1168 C.ar    
  18 C18           -1.2722    -4.9507    -0.0354 C.ar    
  19 C19           -0.7353    -4.2721     1.0752 C.ar    
  20 C20           -0.7158    -2.8835     1.0830 C.ar    
  21 C21           -1.1404    -6.3790     0.2613 C.2     
  22 C22           -0.5624    -6.4780     1.4692 C.2     
  23 N23           -0.3130    -5.2295     1.9711 N.pl3   
  24 C24            0.3105    -4.9525     3.2676 C.3     
  25 C25           -0.7614    -4.7264     4.3024 C.ar    
  26 C26           -1.2699    -5.7843     5.0404 C.ar    
  27 C27           -2.2520    -5.5385     5.9812 C.ar    
  28 N28           -2.7051    -4.3161     6.1798 N.ar    
  29 C29           -2.2448    -3.2865     5.4965 C.ar    
  30 C30           -1.2583    -3.4546     4.5433 C.ar    
  31 H31            0.9390    -0.5411    -0.0105 H       
  32 H32           -3.3430    -0.5325     0.0325 H       
  33 H33           -3.5846     3.0215    -0.4611 H       
  34 H34           -4.4489     1.4655    -0.4605 H       
  35 H35           -4.2354     1.3478     2.0071 H       
  36 H36           -3.3711     2.9038     2.0065 H       
  37 H37           -6.1954     2.4913     0.9286 H       
  38 H38           -5.2240     3.7348     3.5415 H       
  39 H39           -6.9089     3.7075     2.9683 H       
  40 H40           -6.0866     2.1855     3.3869 H       
  41 H41           -4.9291     4.3484    -0.1184 H       
  42 H42           -6.2330     4.9706     0.9213 H       
  43 H43           -4.5481     4.9978     1.4945 H       
  44 H44           -2.1624    -2.3109    -1.9334 H       
  45 H45           -2.1969    -4.7518    -1.9679 H       
  46 H46           -0.3063    -2.3514     1.9289 H       
  47 H47           -1.4495    -7.1976    -0.3717 H       
  48 H48           -0.3293    -7.4057     1.9706 H       
  49 H49            0.9273    -5.8013     3.5628 H       
  50 H50            0.9329    -4.0612     3.1883 H       
  51 H51           -0.9034    -6.7878     4.8818 H       
  52 H52           -2.6534    -6.3572     6.5601 H       
  53 H53           -2.6406    -2.2998     5.6867 H       
  54 H54           -0.8852    -2.6073     3.9872 H       
@<TRIPOS>BOND
   1    1    2 2
   2    1    9 1
   3    1    6 1
   4    2    3 1
   5    2   31 1
   6    3    4 2
   7    3   15 1
   8    4    5 1
   9    4   32 1
  10    5    8 1
  11    5    6 am
  12    6    7 2
  13    8   11 1
  14    8   33 1
  15    8   34 1
  16    9   10 3
  17   11   12 1
  18   11   35 1
  19   11   36 1
  20   12   13 1
  21   12   14 1
  22   12   37 1
  23   13   38 1
  24   13   39 1
  25   13   40 1
  26   14   41 1
  27   14   42 1
  28   14   43 1
  29   15   16 ar
  30   15   20 ar
  31   16   17 ar
  32   16   44 1
  33   17   18 ar
  34   17   45 1
  35   18   19 ar
  36   18   21 1
  37   19   20 ar
  38   19   23 1
  39   20   46 1
  40   21   22 2
  41   21   47 1
  42   22   23 1
  43   22   48 1
  44   23   24 1
  45   24   25 1
  46   24   49 1
  47   24   50 1
  48   25   26 ar
  49   25   30 ar
  50   26   27 ar
  51   26   51 1
  52   27   28 ar
  53   27   52 1
  54   28   29 ar
  55   29   30 ar
  56   29   53 1
  57   30   54 1

#	End of record

