#	Name: ASD01911866
#	Creating user name:	WinNT
#	Creation time:	15. 06. 2019 19:58

#	Modifying user name:	WinNT
#	Modification time:	15. 06. 2019 19:58

#	Program:	/corina/corina34_cracker 3.40 0067  02.08.2006

@<TRIPOS>MOLECULE
ASD01911866
  39   41    0    0    0
SMALL
NO_CHARGES


@<TRIPOS>ATOM
   1 C1            -1.1237    -1.0305     2.6987 C.ar    
   2 C2            -1.1953    -0.1960     1.5874 C.ar    
   3 C3            -1.3514     1.1691     1.7790 C.ar    
   4 N4            -1.4312     1.6730     2.9946 N.ar    
   5 C5            -1.3669     0.9102     4.0682 C.ar    
   6 C6            -1.2119    -0.4592     3.9577 C.ar    
   7 O7            -1.1130    -0.7108     0.3324 O.3     
   8 C8            -0.9609    -2.0549     0.2030 C.ar    
   9 C9             0.2844    -2.5866    -0.1025 C.ar    
  10 C10            0.4407    -3.9542    -0.2340 C.ar    
  11 C11           -0.6430    -4.7958    -0.0620 C.ar    
  12 C12           -1.8911    -4.2684     0.2432 C.ar    
  13 C13           -2.0480    -2.8961     0.3816 C.ar    
  14 N14           -2.9873    -5.1193     0.4162 N.am    
  15 C15           -2.8094    -6.3508     0.9342 C.2     
  16 C16           -3.9492    -7.2880     1.0207 C.ar    
  17 O17           -1.7116    -6.6907     1.3303 O.2     
  18 C18           -3.7682    -8.5639     1.5566 C.ar    
  19 C19           -4.8360    -9.4342     1.6351 C.ar    
  20 C20           -6.0843    -9.0452     1.1838 C.ar    
  21 C21           -6.2713    -7.7809     0.6504 C.ar    
  22 C22           -5.2124    -6.8985     0.5720 C.ar    
  23 Cl23          -7.8416    -7.3023     0.0856 Cl      
  24 Cl24           1.9996    -4.6157    -0.6160 Cl      
  25 C25           -1.4637     1.5395     5.4341 C.3     
  26 H26           -1.0068    -2.0978     2.5825 H       
  27 H27           -1.4077     1.8259     0.9235 H       
  28 H28           -1.1602    -1.0764     4.8425 H       
  29 H29            1.1322    -1.9313    -0.2379 H       
  30 H30           -0.5189    -5.8637    -0.1655 H       
  31 H31           -3.0176    -2.4838     0.6189 H       
  32 H32           -3.8758    -4.8232     0.1633 H       
  33 H33           -2.7941    -8.8696     1.9088 H       
  34 H34           -4.6968   -10.4217     2.0497 H       
  35 H35           -6.9166    -9.7305     1.2473 H       
  36 H36           -5.3590    -5.9126     0.1562 H       
  37 H37           -2.5082     1.5772     5.7435 H       
  38 H38           -0.8942     0.9456     6.1489 H       
  39 H39           -1.0588     2.5508     5.3977 H       
@<TRIPOS>BOND
   1    1    2 ar
   2    1    6 ar
   3    1   26 1
   4    2    3 ar
   5    2    7 1
   6    3    4 ar
   7    3   27 1
   8    4    5 ar
   9    5    6 ar
  10    5   25 1
  11    6   28 1
  12    7    8 1
  13    8    9 ar
  14    8   13 ar
  15    9   10 ar
  16    9   29 1
  17   10   11 ar
  18   10   24 1
  19   11   12 ar
  20   11   30 1
  21   12   13 ar
  22   12   14 1
  23   13   31 1
  24   14   15 am
  25   14   32 1
  26   15   16 1
  27   15   17 2
  28   16   18 ar
  29   16   22 ar
  30   18   19 ar
  31   18   33 1
  32   19   20 ar
  33   19   34 1
  34   20   21 ar
  35   20   35 1
  36   21   22 ar
  37   21   23 1
  38   22   36 1
  39   25   37 1
  40   25   38 1
  41   25   39 1

#	End of record

