#	Name: ASD03090818
#	Creating user name:	WinNT
#	Creation time:	15. 06. 2019 20:29

#	Modifying user name:	WinNT
#	Modification time:	15. 06. 2019 20:29

#	Program:	/corina/corina34_cracker 3.40 0067  02.08.2006

@<TRIPOS>MOLECULE
ASD03090818
  31   33    0    0    0
SMALL
NO_CHARGES


@<TRIPOS>ATOM
   1 C1            -0.0183     1.5030     0.0799 C.2     
   2 C2             0.0022    -0.0037     0.1000 C.3     
   3 O3             1.0269     2.1255     0.0695 O.2     
   4 N4            -1.1762     2.1507     0.0679 N.2     
   5 S5             0.1650     4.5422     0.0393 S.3     
   6 C6            -1.1944     3.4850     0.0500 C.2     
   7 N7            -2.2863     4.2876     0.0362 N.pl3   
   8 C8            -2.0655     5.6297     0.0185 C.2     
   9 C9            -0.7996     6.0286     0.0165 C.2     
  10 C10           -0.2900     7.4467    -0.0014 C.3     
  11 O11           -7.2948     1.9665     0.0269 O.3     
  12 C12           -6.8723     0.6193     0.3090 C.3     
  13 O13           -5.5120     0.5817    -0.1614 O.3     
  14 C14           -5.0583     1.8659    -0.0682 C.ar    
  15 C15           -6.1546     2.7180     0.0476 C.ar    
  16 C16           -3.7761     2.3878    -0.0719 C.ar    
  17 C17           -3.5847     3.7585     0.0394 C.ar    
  18 C18           -4.6787     4.6050     0.1545 C.ar    
  19 C19           -5.9592     4.0850     0.1578 C.ar    
  20 F20           -6.9242     0.3655     1.6838 F       
  21 F21           -7.6602    -0.3000    -0.3920 F       
  22 H22            1.0347    -0.3530     0.1027 H       
  23 H23           -0.5050    -0.3620     0.9958 H       
  24 H24           -0.5084    -0.3858    -0.7840 H       
  25 H25           -2.8815     6.3371     0.0063 H       
  26 H26            0.7999     7.4411     0.0011 H       
  27 H27           -0.6487     7.9503    -0.8991 H       
  28 H28           -0.6528     7.9743     0.8807 H       
  29 H29           -2.9250     1.7290    -0.1613 H       
  30 H30           -4.5292     5.6710     0.2410 H       
  31 H31           -6.8090     4.7455     0.2476 H       
@<TRIPOS>BOND
   1    1    2 1
   2    1    3 2
   3    1    4 1
   4    2   22 1
   5    2   23 1
   6    2   24 1
   7    4    6 2
   8    5    6 1
   9    5    9 1
  10    6    7 1
  11    7    8 1
  12    7   17 1
  13    8    9 2
  14    8   25 1
  15    9   10 1
  16   10   26 1
  17   10   27 1
  18   10   28 1
  19   11   12 1
  20   11   15 1
  21   12   13 1
  22   12   20 1
  23   12   21 1
  24   13   14 1
  25   14   15 ar
  26   14   16 ar
  27   15   19 ar
  28   16   17 ar
  29   16   29 1
  30   17   18 ar
  31   18   19 ar
  32   18   30 1
  33   19   31 1

#	End of record

