#	Name: ASD06170125
#	Creating user name:	WinNT
#	Creation time:	15. 06. 2019 21:05

#	Modifying user name:	WinNT
#	Modification time:	15. 06. 2019 21:05

#	Program:	/corina/corina34_cracker 3.40 0067  02.08.2006

@<TRIPOS>MOLECULE
ASD06170125
  61   65    0    0    0
SMALL
NO_CHARGES


@<TRIPOS>ATOM
   1 N1             0.1060    -1.8116     1.1872 N.pl3   
   2 N2             0.0319    -0.7791     0.2475 N.am    
   3 C3             1.2859    -0.3876    -0.0603 C.2     
   4 C4             2.1937    -1.2280     0.7366 C.2     
   5 C5             1.3941    -2.0770     1.4766 C.2     
   6 C6             3.6605    -1.1746     0.7435 C.2     
   7 O7             4.2936    -1.9326     1.4546 O.2     
   8 N8             4.3063    -0.2861    -0.0375 N.am    
   9 C9            -1.1449    -0.2422    -0.2846 C.ar    
  10 C10           -1.0818     0.7866    -1.2155 C.ar    
  11 C11           -2.2456     1.3142    -1.7394 C.ar    
  12 C12           -3.4729     0.8193    -1.3380 C.ar    
  13 C13           -3.5392    -0.2046    -0.4110 C.ar    
  14 C14           -2.3790    -0.7405     0.1125 C.ar    
  15 O15            1.6036     0.4881    -0.8432 O.2     
  16 C16            1.8812    -3.1237     2.4452 C.3     
  17 C17            5.6996    -0.1691     0.0393 C.ar    
  18 C18            6.4803    -1.2968     0.2577 C.ar    
  19 C19            7.8555    -1.1802     0.3334 C.ar    
  20 C20            8.4557     0.0652     0.1911 C.ar    
  21 C21            7.6752     1.1903    -0.0264 C.ar    
  22 C22            6.3011     1.0734    -0.1084 C.ar    
  23 F23            8.6159    -2.2764     0.5462 F       
  24 O24            9.8087     0.1804     0.2655 O.3     
  25 N25           11.9962    -0.7176    -3.1137 N.ar    
  26 C26           10.6845    -0.7147    -3.1580 C.ar    
  27 C27            9.9146    -0.4175    -2.0407 C.ar    
  28 C28           10.5345    -0.1141    -0.8412 C.ar    
  29 C29           11.9471    -0.1202    -0.8053 C.ar    
  30 C30           12.6464     0.1766     0.3741 C.ar    
  31 C31           14.0113     0.1608     0.3723 C.ar    
  32 C32           14.7212    -0.1493    -0.7965 C.ar    
  33 C33           14.0655    -0.4414    -1.9576 C.ar    
  34 C34           12.6612    -0.4337    -1.9874 C.ar    
  35 O35           16.0798    -0.1586    -0.7731 O.3     
  36 C36           16.7475    -0.4817    -1.9945 C.3     
  37 O37           14.6893     0.4489     1.5153 O.3     
  38 C38           13.9091     0.7571     2.6722 C.3     
  39 H39           -0.6574    -2.2665     1.5761 H       
  40 H40            3.8058     0.2723    -0.6529 H       
  41 H41           -0.1236     1.1738    -1.5291 H       
  42 H42           -2.1972     2.1144    -2.4631 H       
  43 H43           -4.3816     1.2336    -1.7492 H       
  44 H44           -4.4993    -0.5887    -0.0993 H       
  45 H45           -2.4313    -1.5433     0.8331 H       
  46 H46            1.0266    -3.6405     2.8818 H       
  47 H47            2.5099    -3.8417     1.9186 H       
  48 H48            2.4595    -2.6458     3.2360 H       
  49 H49            6.0132    -2.2642     0.3686 H       
  50 H50            8.1420     2.1580    -0.1363 H       
  51 H51            5.6943     1.9496    -0.2829 H       
  52 H52           10.1901    -0.9500    -4.0889 H       
  53 H53            8.8367    -0.4224    -2.1080 H       
  54 H54           12.1075     0.4168     1.2787 H       
  55 H55           14.6249    -0.6784    -2.8506 H       
  56 H56           16.4532    -1.4808    -2.3161 H       
  57 H57           16.4727     0.2425    -2.7614 H       
  58 H58           17.8257    -0.4534    -1.8376 H       
  59 H59           14.5717     0.9670     3.5118 H       
  60 H60           13.2900     1.6313     2.4706 H       
  61 H61           13.2706    -0.0918     2.9165 H       
@<TRIPOS>BOND
   1    1    2 1
   2    1    5 1
   3    1   39 1
   4    2    3 am
   5    2    9 1
   6    3    4 1
   7    3   15 2
   8    4    5 2
   9    4    6 1
  10    5   16 1
  11    6    7 2
  12    6    8 am
  13    8   17 1
  14    8   40 1
  15    9   10 ar
  16    9   14 ar
  17   10   11 ar
  18   10   41 1
  19   11   12 ar
  20   11   42 1
  21   12   13 ar
  22   12   43 1
  23   13   14 ar
  24   13   44 1
  25   14   45 1
  26   16   46 1
  27   16   47 1
  28   16   48 1
  29   17   18 ar
  30   17   22 ar
  31   18   19 ar
  32   18   49 1
  33   19   20 ar
  34   19   23 1
  35   20   21 ar
  36   20   24 1
  37   21   22 ar
  38   21   50 1
  39   22   51 1
  40   24   28 1
  41   25   26 ar
  42   25   34 ar
  43   26   27 ar
  44   26   52 1
  45   27   28 ar
  46   27   53 1
  47   28   29 ar
  48   29   30 ar
  49   29   34 ar
  50   30   31 ar
  51   30   54 1
  52   31   32 ar
  53   31   37 1
  54   32   33 ar
  55   32   35 1
  56   33   34 ar
  57   33   55 1
  58   35   36 1
  59   36   56 1
  60   36   57 1
  61   36   58 1
  62   37   38 1
  63   38   59 1
  64   38   60 1
  65   38   61 1

#	End of record

