#	Name: ASD01911032
#	Creating user name:	WinNT
#	Creation time:	15. 06. 2019 19:57

#	Modifying user name:	WinNT
#	Modification time:	15. 06. 2019 19:57

#	Program:	/corina/corina34_cracker 3.40 0067  02.08.2006

@<TRIPOS>MOLECULE
ASD01911032
  51   54    0    0    0
SMALL
NO_CHARGES


@<TRIPOS>ATOM
   1 N1            -4.7518    -3.3310     1.0063 N.3     
   2 C2            -3.5025    -2.6300     1.3314 C.3     
   3 C3            -2.6796    -2.4402     0.0527 C.3     
   4 N4            -3.5232    -1.7744    -0.9514 N.am    
   5 C5            -4.8507    -2.3422    -1.2319 C.3     
   6 C6            -5.5881    -2.5357     0.0974 C.3     
   7 C7            -3.0915    -0.6728    -1.5969 C.2     
   8 C8            -3.8995    -0.0921    -2.6876 C.ar    
   9 C9            -4.0112     1.2961    -2.8123 C.ar    
  10 C10           -4.7639     1.8435    -3.8288 C.ar    
  11 C11           -5.4164     1.0216    -4.7361 C.ar    
  12 C12           -5.3116    -0.3742    -4.6210 C.ar    
  13 C13           -4.5468    -0.9279    -3.5970 C.ar    
  14 C14           -5.9841    -1.2249    -5.5562 C.1     
  15 O15           -2.0366    -0.1574    -1.2811 O.2     
  16 C16           -6.5355    -1.9223    -6.3230 C.1     
  17 C17           -7.2080    -2.7730    -7.2582 C.ar    
  18 C18           -7.1102    -4.1627    -7.1526 C.ar    
  19 N19           -7.7289    -4.9442    -8.0131 N.ar    
  20 C20           -8.4578    -4.4566    -8.9985 C.ar    
  21 C21           -8.6047    -3.0916    -9.1718 C.ar    
  22 C22           -7.9804    -2.2260    -8.2920 C.ar    
  23 C23           -5.4469    -3.6644     2.1558 C.ar    
  24 O24           -6.1560     1.5661    -5.7341 O.3     
  25 N25           -6.6023    -4.3044     2.0502 N.ar    
  26 C26           -7.2916    -4.6377     3.1288 C.ar    
  27 C27           -6.7915    -4.3094     4.3791 C.ar    
  28 C28           -5.5801    -3.6399     4.4533 C.ar    
  29 N29           -4.9386    -3.3408     3.3358 N.ar    
  30 C30           -6.2191     2.9926    -5.7909 C.3     
  31 H31           -3.7335    -1.6561     1.7630 H       
  32 H32           -2.9304    -3.2194     2.0479 H       
  33 H33           -1.8078    -1.8219     0.2666 H       
  34 H34           -2.3594    -3.4116    -0.3242 H       
  35 H35           -5.4143    -1.6590    -1.8672 H       
  36 H36           -4.7392    -3.3041    -1.7322 H       
  37 H37           -6.5287    -3.0569    -0.0810 H       
  38 H38           -5.7901    -1.5632     0.5463 H       
  39 H39           -3.5061     1.9418    -2.1092 H       
  40 H40           -4.8463     2.9166    -3.9192 H       
  41 H41           -4.4618    -2.0004    -3.5031 H       
  42 H42           -6.5222    -4.5995    -6.3590 H       
  43 H43           -8.9479    -5.1342    -9.6819 H       
  44 H44           -9.2045    -2.7061    -9.9830 H       
  45 H45           -8.0783    -1.1563    -8.4040 H       
  46 H46           -8.2330    -5.1589     3.0363 H       
  47 H47           -7.3341    -4.5693     5.2760 H       
  48 H48           -5.1631    -3.3693     5.4120 H       
  49 H49           -6.6500     3.3743    -4.8653 H       
  50 H50           -5.2144     3.3959    -5.9174 H       
  51 H51           -6.8410     3.2956    -6.6332 H       
@<TRIPOS>BOND
   1    1    2 1
   2    1   23 1
   3    1    6 1
   4    2    3 1
   5    2   31 1
   6    2   32 1
   7    3    4 1
   8    3   33 1
   9    3   34 1
  10    4    5 1
  11    4    7 am
  12    5    6 1
  13    5   35 1
  14    5   36 1
  15    6   37 1
  16    6   38 1
  17    7    8 1
  18    7   15 2
  19    8    9 ar
  20    8   13 ar
  21    9   10 ar
  22    9   39 1
  23   10   11 ar
  24   10   40 1
  25   11   12 ar
  26   11   24 1
  27   12   13 ar
  28   12   14 1
  29   13   41 1
  30   14   16 3
  31   16   17 1
  32   17   18 ar
  33   17   22 ar
  34   18   19 ar
  35   18   42 1
  36   19   20 ar
  37   20   21 ar
  38   20   43 1
  39   21   22 ar
  40   21   44 1
  41   22   45 1
  42   23   25 ar
  43   23   29 ar
  44   24   30 1
  45   25   26 ar
  46   26   27 ar
  47   26   46 1
  48   27   28 ar
  49   27   47 1
  50   28   29 ar
  51   28   48 1
  52   30   49 1
  53   30   50 1
  54   30   51 1

#	End of record

