#	Name: ASD01814514
#	Creating user name:	WinNT
#	Creation time:	15. 06. 2019 19:32

#	Modifying user name:	WinNT
#	Modification time:	15. 06. 2019 19:32

#	Program:	/corina/corina34_cracker 3.40 0067  02.08.2006

@<TRIPOS>MOLECULE
ASD01814514
  44   47    0    0    0
SMALL
NO_CHARGES


@<TRIPOS>ATOM
   1 C1            -0.1381     1.0836     0.5250 C.ar    
   2 C2            -0.1560    -0.2805     0.2996 C.ar    
   3 C3            -1.3527    -0.9234     0.0277 C.ar    
   4 C4            -2.5336    -0.2045    -0.0199 C.ar    
   5 C5            -2.5291     1.1716     0.2374 C.ar    
   6 C6            -1.3141     1.8096     0.5012 C.ar    
   7 N7            -3.7261    -0.8582    -0.3735 N.pl3   
   8 C8            -4.4052    -0.4354    -1.5174 C.ar    
   9 C9            -4.8623     0.8835    -1.6158 C.ar    
  10 C10           -4.7025     1.8148    -0.4884 C.2     
  11 N11           -3.6796     1.8973     0.2860 N.2     
  12 C12           -4.6209    -1.3214    -2.5621 C.ar    
  13 C13           -5.2621    -0.8939    -3.7103 C.ar    
  14 C14           -5.6885     0.4177    -3.8244 C.ar    
  15 C15           -5.4932     1.3068    -2.7870 C.ar    
  16 Cl16           1.3670     1.8867     0.8465 Cl      
  17 N17           -5.7448     2.6786    -0.2397 N.pl3   
  18 C18           -5.6193     3.7462     0.7645 C.3     
  19 C19           -6.8314     3.6785     1.6994 C.3     
  20 N20           -8.0649     3.7358     0.9050 N.4     
  21 C21           -8.1619     2.5490     0.0458 C.3     
  22 C22           -7.0138     2.5642    -0.9750 C.3     
  23 C23           -9.2240     3.7817     1.8062 C.3     
  24 O24           -8.0512     4.9386     0.0723 O.3     
  25 H25            0.7638    -0.8453     0.3352 H       
  26 H26           -1.3636    -1.9890    -0.1480 H       
  27 H27           -1.2928     2.8746     0.6789 H       
  28 H28           -4.0698    -1.5877     0.1655 H       
  29 H29           -4.2878    -2.3454    -2.4791 H       
  30 H30           -5.4305    -1.5866    -4.5216 H       
  31 H31           -6.1769     0.7470    -4.7296 H       
  32 H32           -5.8275     2.3294    -2.8815 H       
  33 H33           -4.7046     3.6024     1.3397 H       
  34 H34           -5.5940     4.7158     0.2671 H       
  35 H35           -6.8046     2.7455     2.2623 H       
  36 H36           -6.8048     4.5210     2.3906 H       
  37 H37           -8.0949     1.6501     0.6587 H       
  38 H38           -9.1158     2.5590    -0.4816 H       
  39 H39           -7.1322     3.4144    -1.6467 H       
  40 H40           -7.0210     1.6371    -1.5482 H       
  41 H41           -9.1573     4.6666     2.4391 H       
  42 H42          -10.1405     3.8242     1.2177 H       
  43 H43           -9.2344     2.8884     2.4307 H       
  44 H44           -8.8372     5.0427    -0.4813 H       
@<TRIPOS>BOND
   1    1    2 ar
   2    1   16 1
   3    1    6 ar
   4    2    3 ar
   5    2   25 1
   6    3    4 ar
   7    3   26 1
   8    4    5 ar
   9    4    7 1
  10    5    6 ar
  11    5   11 1
  12    6   27 1
  13    7    8 1
  14    7   28 1
  15    8    9 ar
  16    8   12 ar
  17    9   10 1
  18    9   15 ar
  19   10   11 2
  20   10   17 1
  21   12   13 ar
  22   12   29 1
  23   13   14 ar
  24   13   30 1
  25   14   15 ar
  26   14   31 1
  27   15   32 1
  28   17   18 1
  29   17   22 1
  30   18   19 1
  31   18   33 1
  32   18   34 1
  33   19   20 1
  34   19   35 1
  35   19   36 1
  36   20   21 1
  37   20   23 1
  38   20   24 1
  39   21   22 1
  40   21   37 1
  41   21   38 1
  42   22   39 1
  43   22   40 1
  44   23   41 1
  45   23   42 1
  46   23   43 1
  47   24   44 1

#	End of record

