#	Name: ASD07930284
#	Creating user name:	WinNT
#	Creation time:	15. 06. 2019 21:12

#	Modifying user name:	WinNT
#	Modification time:	15. 06. 2019 21:12

#	Program:	/corina/corina34_cracker 3.40 0067  02.08.2006

@<TRIPOS>MOLECULE
ASD07930284
  56   61    0    0    0
SMALL
NO_CHARGES


@<TRIPOS>ATOM
   1 C1             0.0692     0.3377    -1.2783 C.2     
   2 C2             0.2976    -1.0027    -1.4282 C.2     
   3 C3             1.6666    -1.5058    -1.2910 C.2     
   4 N4             2.6610    -0.6425    -1.0205 N.am    
   5 C5             2.4058     0.7024    -0.8759 C.2     
   6 C6             1.1423     1.1930    -0.9992 C.2     
   7 C7             4.0442    -1.1143    -0.8703 C.3     
   8 C8             4.9708    -0.0967    -1.5522 C.3     
   9 N9             4.7906     1.2083    -0.9004 N.am    
  10 C10            3.5366     1.6109    -0.5839 C.2     
  11 C11            5.9455     2.0576    -0.5986 C.3     
  12 O12            3.3442     2.6962    -0.0706 O.2     
  13 O13            1.9016    -2.6952    -1.4205 O.2     
  14 N14           -0.7568    -1.8770    -1.7070 N.pl3   
  15 C15           -0.9247    -2.6042    -2.8428 C.2     
  16 N16           -2.0237    -3.2994    -2.7322 N.2     
  17 C17           -2.5910    -3.0481    -1.5429 C.2     
  18 C18           -1.8144    -2.1676    -0.8838 C.2     
  19 C19           -3.8732    -3.6519    -1.0304 C.3     
  20 C20            6.3145     2.8758    -1.8377 C.3     
  21 O21            5.2648     3.8011    -2.1275 O.3     
  22 C22            5.3848     4.5333    -3.2655 C.ar    
  23 C23            4.4483     5.5518    -3.5488 C.ar    
  24 C24            4.5838     6.2910    -4.7144 C.ar    
  25 C25            5.6437     6.0181    -5.5896 C.ar    
  26 C26            6.5493     5.0236    -5.3012 C.ar    
  27 C27            6.4240     4.2832    -4.1371 C.ar    
  28 C28            3.2851     5.9647    -2.7426 C.ar    
  29 C29            2.5728     7.0053    -3.3211 C.ar    
  30 S30            3.3058     7.4893    -4.8421 S.3     
  31 C31            2.8515     5.4349    -1.5117 C.ar    
  32 C32            1.7362     5.9428    -0.8919 C.ar    
  33 C33            1.0269     6.9826    -1.4737 C.ar    
  34 C34            1.4374     7.5112    -2.6750 C.ar    
  35 H35           -0.9305     0.7339    -1.3788 H       
  36 H36            0.9657     2.2518    -0.8807 H       
  37 H37            4.2949    -1.1894     0.1878 H       
  38 H38            4.1544    -2.0890    -1.3456 H       
  39 H39            6.0071    -0.4179    -1.4483 H       
  40 H40            4.7132    -0.0171    -2.6084 H       
  41 H41            5.6966     2.7317     0.2210 H       
  42 H42            6.7909     1.4325    -0.3110 H       
  43 H43           -0.2603    -2.6061    -3.6943 H       
  44 H44           -1.9936    -1.7625     0.1012 H       
  45 H45           -3.6509    -4.5716    -0.4894 H       
  46 H46           -4.3649    -2.9462    -0.3607 H       
  47 H47           -4.5312    -3.8744    -1.8704 H       
  48 H48            7.2389     3.4221    -1.6503 H       
  49 H49            6.4537     2.2066    -2.6868 H       
  50 H50            5.7501     6.5928    -6.4978 H       
  51 H51            7.3624     4.8217    -5.9828 H       
  52 H52            7.1377     3.5037    -3.9149 H       
  53 H53            3.3989     4.6248    -1.0529 H       
  54 H54            1.4102     5.5307     0.0517 H       
  55 H55            0.1500     7.3779    -0.9826 H       
  56 H56            0.8811     8.3212    -3.1231 H       
@<TRIPOS>BOND
   1    1    2 2
   2    1    6 1
   3    1   35 1
   4    2    3 1
   5    2   14 1
   6    3    4 am
   7    3   13 2
   8    4    5 1
   9    4    7 1
  10    5    6 2
  11    5   10 1
  12    6   36 1
  13    7    8 1
  14    7   37 1
  15    7   38 1
  16    8    9 1
  17    8   39 1
  18    8   40 1
  19    9   10 am
  20    9   11 1
  21   10   12 2
  22   11   20 1
  23   11   41 1
  24   11   42 1
  25   14   15 1
  26   14   18 1
  27   15   16 2
  28   15   43 1
  29   16   17 1
  30   17   18 2
  31   17   19 1
  32   18   44 1
  33   19   45 1
  34   19   46 1
  35   19   47 1
  36   20   21 1
  37   20   48 1
  38   20   49 1
  39   21   22 1
  40   22   23 ar
  41   22   27 ar
  42   23   24 ar
  43   23   28 1
  44   24   25 ar
  45   24   30 1
  46   25   26 ar
  47   25   50 1
  48   26   27 ar
  49   26   51 1
  50   27   52 1
  51   28   29 ar
  52   28   31 ar
  53   29   30 1
  54   29   34 ar
  55   31   32 ar
  56   31   53 1
  57   32   33 ar
  58   32   54 1
  59   33   34 ar
  60   33   55 1
  61   34   56 1

#	End of record

