#	Name: ASD00170022
#	Creating user name:	WinNT
#	Creation time:	15. 06. 2019 18:31

#	Modifying user name:	WinNT
#	Modification time:	15. 06. 2019 18:31

#	Program:	/corina/corina34_cracker 3.40 0067  02.08.2006

@<TRIPOS>MOLECULE
ASD00170022
  41   43    0    0    0
SMALL
NO_CHARGES


@<TRIPOS>ATOM
   1 O1            -0.0159     1.3378     0.0090 O.3     
   2 C2             6.0560     5.9136     0.3896 C.2     
   3 N3             4.9356     5.2419     0.3512 N.2     
   4 N4             4.8961     3.8712     0.1045 N.am    
   5 C5             6.0003     3.1404    -0.1103 C.2     
   6 C6             7.2870     3.7596    -0.0928 C.2     
   7 C7             7.3437     5.2037     0.1591 C.2     
   8 O8             5.9051     1.9444    -0.3206 O.2     
   9 C9             8.5352     3.2134    -0.2842 C.2     
  10 S10            9.7559     4.3914    -0.1603 S.3     
  11 C11            8.6041     5.6739     0.1521 C.2     
  12 N12            8.7683     1.8743    -0.5444 N.pl3   
  13 C13            6.0442     7.3634     0.6546 C.2     
  14 O14            4.8746     8.0018     0.8585 O.3     
  15 O15            7.0889     7.9833     0.6892 O.2     
  16 C16            3.6526     3.2300     0.0803 C.ar    
  17 C17            2.7519     3.4205     1.1208 C.ar    
  18 C18            1.5255     2.7875     1.0961 C.ar    
  19 C19            1.1921     1.9612     0.0323 C.ar    
  20 C20            2.0910     1.7704    -1.0074 C.ar    
  21 C21            3.3156     2.4070    -0.9872 C.ar    
  22 C22            4.9388     9.4297     1.1138 C.3     
  23 C23            3.5241     9.9751     1.3191 C.3     
  24 C24           -1.0811     2.0850    -0.3217 C.2     
  25 C25           -2.4390     1.4448    -0.4532 C.3     
  26 O26           -0.9510     3.2708    -0.5140 O.2     
  27 H27            8.8711     6.7071     0.3178 H       
  28 H28            8.0241     1.2547    -0.6017 H       
  29 H29            9.6757     1.5553    -0.6694 H       
  30 H30            3.0114     4.0633     1.9490 H       
  31 H31            0.8253     2.9354     1.9049 H       
  32 H32            1.8307     1.1271    -1.8350 H       
  33 H33            4.0151     2.2584    -1.7965 H       
  34 H34            5.5322     9.6123     2.0097 H       
  35 H35            5.4013     9.9304     0.2632 H       
  36 H36            3.5723    11.0471     1.5108 H       
  37 H37            2.9307     9.7925     0.4232 H       
  38 H38            3.0615     9.4744     2.1696 H       
  39 H39           -2.3595     0.3780    -0.2443 H       
  40 H40           -3.1273     1.9037     0.2566 H       
  41 H41           -2.8123     1.5897    -1.4669 H       
@<TRIPOS>BOND
   1    1   24 1
   2    1   19 1
   3    2    3 2
   4    2   13 1
   5    2    7 1
   6    3    4 1
   7    4    5 am
   8    4   16 1
   9    5    6 1
  10    5    8 2
  11    6    7 1
  12    6    9 2
  13    7   11 2
  14    9   10 1
  15    9   12 1
  16   10   11 1
  17   11   27 1
  18   12   28 1
  19   12   29 1
  20   13   14 1
  21   13   15 2
  22   14   22 1
  23   16   17 ar
  24   16   21 ar
  25   17   18 ar
  26   17   30 1
  27   18   19 ar
  28   18   31 1
  29   19   20 ar
  30   20   21 ar
  31   20   32 1
  32   21   33 1
  33   22   23 1
  34   22   34 1
  35   22   35 1
  36   23   36 1
  37   23   37 1
  38   23   38 1
  39   24   25 1
  40   24   26 2
  41   25   39 1
  42   25   40 1
  43   25   41 1

#	End of record

