#	Name: ASD00311016
#	Creating user name:	WinNT
#	Creation time:	15. 06. 2019 18:34

#	Modifying user name:	WinNT
#	Modification time:	15. 06. 2019 18:34

#	Program:	/corina/corina34_cracker 3.40 0067  02.08.2006

@<TRIPOS>MOLECULE
ASD00311016
  39   42    0    0    0
SMALL
NO_CHARGES


@<TRIPOS>ATOM
   1 C1            -0.0172     1.4142     0.0098 C.ar    
   2 C2             0.0021    -0.0041     0.0020 C.ar    
   3 C3             1.2338    -0.6840    -0.0129 C.ar    
   4 C4             2.3962     0.0166    -0.0193 C.ar    
   5 C5             2.3906     1.4230    -0.0112 C.ar    
   6 C6             1.1938     2.1215     0.0021 C.ar    
   7 C7             4.9367     1.4304    -0.0329 C.2     
   8 C8             3.6711     2.1617    -0.0179 C.2     
   9 C9             7.3871    -0.0387    -0.0622 C.ar    
  10 C10            7.3801     1.3704    -0.0541 C.ar    
  11 C11            6.1074     2.1058    -0.0391 C.2     
  12 N12            8.5051    -0.7160    -0.0753 N.ar    
  13 C13            9.6977    -0.1079    -0.0816 C.ar    
  14 C14            9.7770     1.3082    -0.0741 C.ar    
  15 C15            8.5909     2.0604    -0.0601 C.ar    
  16 O16            3.6716     3.3792    -0.0110 O.2     
  17 C17           11.0357     1.9336    -0.0791 C.ar    
  18 C18           12.1651     1.1729    -0.0912 C.ar    
  19 C19           12.0890    -0.2179    -0.0986 C.ar    
  20 C20           10.8860    -0.8565    -0.0946 C.ar    
  21 C21           -1.2137    -0.7077     0.0098 C.ar    
  22 C22           -2.3901    -0.0225     0.0247 C.ar    
  23 C23           -2.4095     1.3710     0.0319 C.ar    
  24 C24           -1.2523     2.0872     0.0311 C.ar    
  25 H25            1.2543    -1.7637    -0.0189 H       
  26 H26            3.3376    -0.5126    -0.0303 H       
  27 H27            1.1936     3.2015     0.0079 H       
  28 H28            4.9363     0.3505    -0.0391 H       
  29 H29            6.4475    -0.5712    -0.0530 H       
  30 H30            6.1078     3.1858    -0.0329 H       
  31 H31            8.6164     3.1400    -0.0545 H       
  32 H32           11.1067     3.0112    -0.0738 H       
  33 H33           13.1320     1.6540    -0.0954 H       
  34 H34           12.9989    -0.7996    -0.1082 H       
  35 H35           10.8459    -1.9358    -0.1004 H       
  36 H36           -1.2152    -1.7877     0.0036 H       
  37 H37           -3.3227    -0.5672     0.0306 H       
  38 H38           -3.3566     1.8900     0.0430 H       
  39 H39           -1.2821     3.1668     0.0370 H       
@<TRIPOS>BOND
   1    1    2 ar
   2    1    6 ar
   3    1   24 ar
   4    2    3 ar
   5    2   21 ar
   6    3    4 ar
   7    3   25 1
   8    4    5 ar
   9    4   26 1
  10    5    6 ar
  11    5    8 1
  12    6   27 1
  13    7    8 1
  14    7   11 2
  15    7   28 1
  16    8   16 2
  17    9   10 ar
  18    9   12 ar
  19    9   29 1
  20   10   11 1
  21   10   15 ar
  22   11   30 1
  23   12   13 ar
  24   13   14 ar
  25   13   20 ar
  26   14   15 ar
  27   14   17 ar
  28   15   31 1
  29   17   18 ar
  30   17   32 1
  31   18   19 ar
  32   18   33 1
  33   19   20 ar
  34   19   34 1
  35   20   35 1
  36   21   22 ar
  37   21   36 1
  38   22   23 ar
  39   22   37 1
  40   23   24 ar
  41   23   38 1
  42   24   39 1

#	End of record

