#	Name: ASD01811777
#	Creating user name:	WinNT
#	Creation time:	15. 06. 2019 19:27

#	Modifying user name:	WinNT
#	Modification time:	15. 06. 2019 19:27

#	Program:	/corina/corina34_cracker 3.40 0067  02.08.2006

@<TRIPOS>MOLECULE
ASD01811777
  59   63    0    0    0
SMALL
NO_CHARGES


@<TRIPOS>ATOM
   1 C1            -0.1914     1.4833    -0.2118 C.ar    
   2 C2            -0.1020     0.1017    -0.1870 C.ar    
   3 C3             1.1293    -0.5182    -0.3075 C.ar    
   4 C4             2.2764     0.2339    -0.4535 C.ar    
   5 C5             2.1943     1.6275    -0.4799 C.ar    
   6 C6             0.9465     2.2429    -0.3570 C.ar    
   7 C7            -1.3492    -0.7291    -0.0279 C.3     
   8 C8            -1.5528    -1.0652     1.4508 C.3     
   9 C9             1.2176    -2.0223    -0.2785 C.3     
  10 C10            2.6414    -2.4470    -0.5301 C.ar    
  11 C11            3.5016    -2.6400     0.5358 C.ar    
  12 C12            4.8065    -3.0293     0.3111 C.ar    
  13 C13            5.2569    -3.2278    -0.9922 C.ar    
  14 C14            4.3864    -3.0320    -2.0621 C.ar    
  15 C15            3.0819    -2.6478    -1.8258 C.ar    
  16 C16            6.6595    -3.6461    -1.2401 C.2     
  17 N17            7.6100    -3.8727    -0.3159 N.2     
  18 N18            8.6953    -4.2174    -0.9139 N.2     
  19 N19            8.5214    -4.2336    -2.1885 N.pl3   
  20 C20            7.2420    -3.8838    -2.4513 C.2     
  21 C21            9.5366    -4.5789    -3.1866 C.3     
  22 C22            3.2180     2.6808    -0.6200 C.2     
  23 N23            2.6439     3.8959    -0.5873 N.am    
  24 C24            1.1955     3.7290    -0.4225 C.3     
  25 O25            4.4099     2.4788    -0.7461 O.2     
  26 C26            3.3483     5.1756    -0.6983 C.3     
  27 C27            3.4339     5.5848    -2.1701 C.3     
  28 O28            2.1227     5.8673    -2.6729 O.3     
  29 C29            2.0406     7.2410    -3.0846 C.3     
  30 C30            3.4993     7.6560    -3.4024 C.3     
  31 C31            4.2738     6.8728    -2.3076 C.3     
  32 H32           -1.1542     1.9643    -0.1216 H       
  33 H33            3.2354    -0.2539    -0.5469 H       
  34 H34           -2.2088    -0.1681    -0.3946 H       
  35 H35           -1.2466    -1.6516    -0.5994 H       
  36 H36           -0.6933    -1.6262     1.8176 H       
  37 H37           -1.6554    -0.1428     2.0223 H       
  38 H38           -2.4549    -1.6662     1.5659 H       
  39 H39            0.8970    -2.3864     0.6977 H       
  40 H40            0.5721    -2.4391    -1.0516 H       
  41 H41            3.1515    -2.4854     1.5458 H       
  42 H42            5.4774    -3.1794     1.1440 H       
  43 H43            4.7304    -3.1846    -3.0744 H       
  44 H44            2.4061    -2.4961    -2.6544 H       
  45 H45            6.7774    -3.8021    -3.4228 H       
  46 H46            9.5032    -5.6505    -3.3831 H       
  47 H47            9.3389    -4.0339    -4.1096 H       
  48 H48           10.5232    -4.3093    -2.8096 H       
  49 H49            0.6694     4.1596    -1.2745 H       
  50 H50            0.8663     4.2050     0.5012 H       
  51 H51            2.8057     5.9386    -0.1400 H       
  52 H52            4.3539     5.0734    -0.2905 H       
  53 H53            3.8877     4.7820    -2.7511 H       
  54 H54            1.4187     7.3326    -3.9751 H       
  55 H55            1.6400     7.8545    -2.2776 H       
  56 H56            3.7920     7.3296    -4.4004 H       
  57 H57            3.6358     8.7313    -3.2871 H       
  58 H58            4.2882     7.4285    -1.3700 H       
  59 H59            5.2863     6.6421    -2.6387 H       
@<TRIPOS>BOND
   1    1    2 ar
   2    1    6 ar
   3    1   32 1
   4    2    3 ar
   5    2    7 1
   6    3    4 ar
   7    3    9 1
   8    4    5 ar
   9    4   33 1
  10    5    6 ar
  11    5   22 1
  12    6   24 1
  13    7    8 1
  14    7   34 1
  15    7   35 1
  16    8   36 1
  17    8   37 1
  18    8   38 1
  19    9   10 1
  20    9   39 1
  21    9   40 1
  22   10   11 ar
  23   10   15 ar
  24   11   12 ar
  25   11   41 1
  26   12   13 ar
  27   12   42 1
  28   13   14 ar
  29   13   16 1
  30   14   15 ar
  31   14   43 1
  32   15   44 1
  33   16   17 1
  34   16   20 2
  35   17   18 2
  36   18   19 1
  37   19   20 1
  38   19   21 1
  39   20   45 1
  40   21   46 1
  41   21   47 1
  42   21   48 1
  43   22   23 am
  44   22   25 2
  45   23   24 1
  46   23   26 1
  47   24   49 1
  48   24   50 1
  49   26   27 1
  50   26   51 1
  51   26   52 1
  52   27   28 1
  53   27   31 1
  54   27   53 1
  55   28   29 1
  56   29   30 1
  57   29   54 1
  58   29   55 1
  59   30   31 1
  60   30   56 1
  61   30   57 1
  62   31   58 1
  63   31   59 1

#	End of record

