#	Name: ASD01815602
#	Creating user name:	WinNT
#	Creation time:	15. 06. 2019 19:33

#	Modifying user name:	WinNT
#	Modification time:	15. 06. 2019 19:33

#	Program:	/corina/corina34_cracker 3.40 0067  02.08.2006

@<TRIPOS>MOLECULE
ASD01815602
  38   40    0    0    0
SMALL
NO_CHARGES


@<TRIPOS>ATOM
   1 C1             0.1044     1.4770     0.3879 C.ar    
   2 C2             0.0852     0.0907     0.3796 C.ar    
   3 C3             1.2536    -0.6302     0.2388 C.ar    
   4 C4             2.4706     0.0350     0.1025 C.ar    
   5 C5             2.4885     1.4402     0.1106 C.ar    
   6 C6             1.2981     2.1574     0.2544 C.ar    
   7 N7             3.6448    -0.6745    -0.0383 N.pl3   
   8 C8             4.8383    -0.0824    -0.1720 C.2     
   9 C9             4.9815     1.2904    -0.1787 C.2     
  10 C10            3.7819     2.1314    -0.0344 C.2     
  11 O11            3.8554     3.3478    -0.0341 O.2     
  12 C12            6.3094     1.9022    -0.3273 C.2     
  13 O13            7.2933     1.1981    -0.4457 O.2     
  14 O14            6.4364     3.2443    -0.3323 O.3     
  15 C15            3.5837    -2.1382    -0.0413 C.3     
  16 C16            3.4395    -2.6321    -1.4578 C.ar    
  17 C17            4.5595    -2.7763    -2.2555 C.ar    
  18 C18            4.4294    -3.2295    -3.5560 C.ar    
  19 C19            3.1722    -3.5397    -4.0588 C.ar    
  20 C20            2.0517    -3.3940    -3.2551 C.ar    
  21 C21            2.1882    -2.9455    -1.9552 C.ar    
  22 F22            1.3150     3.5082     0.2618 F       
  23 F23            1.2176    -1.9807     0.2337 F       
  24 O24            3.0406    -3.9850    -5.3366 O.3     
  25 C25            1.7177    -4.2846    -5.7862 C.3     
  26 F26            5.5235    -3.3698    -4.3361 F       
  27 H27           -0.8190     2.0269     0.4947 H       
  28 H28           -0.8546    -0.4309     0.4848 H       
  29 H29            5.7182    -0.6996    -0.2778 H       
  30 H30            7.3298     3.6003    -0.4327 H       
  31 H31            4.4989    -2.5409     0.3925 H       
  32 H32            2.7272    -2.4673     0.5471 H       
  33 H33            5.5363    -2.5347    -1.8632 H       
  34 H34            1.0731    -3.6342    -3.6438 H       
  35 H35            1.3153    -2.8324    -1.3294 H       
  36 H36            1.7544    -4.6287    -6.8198 H       
  37 H37            1.2887    -5.0656    -5.1583 H       
  38 H38            1.1008    -3.3882    -5.7234 H       
@<TRIPOS>BOND
   1    1    2 ar
   2    1    6 ar
   3    1   27 1
   4    2    3 ar
   5    2   28 1
   6    3    4 ar
   7    3   23 1
   8    4    5 ar
   9    4    7 1
  10    5    6 ar
  11    5   10 1
  12    6   22 1
  13    7    8 1
  14    7   15 1
  15    8    9 2
  16    8   29 1
  17    9   10 1
  18    9   12 1
  19   10   11 2
  20   12   13 2
  21   12   14 1
  22   14   30 1
  23   15   16 1
  24   15   31 1
  25   15   32 1
  26   16   17 ar
  27   16   21 ar
  28   17   18 ar
  29   17   33 1
  30   18   19 ar
  31   18   26 1
  32   19   20 ar
  33   19   24 1
  34   20   21 ar
  35   20   34 1
  36   21   35 1
  37   24   25 1
  38   25   36 1
  39   25   37 1
  40   25   38 1

#	End of record

