#	Name: ASD08150675
#	Creating user name:	WinNT
#	Creation time:	15. 06. 2019 21:16

#	Modifying user name:	WinNT
#	Modification time:	15. 06. 2019 21:16

#	Program:	/corina/corina34_cracker 3.40 0067  02.08.2006

@<TRIPOS>MOLECULE
ASD08150675
  29   30    0    0    0
SMALL
NO_CHARGES


@<TRIPOS>ATOM
   1 C1            -0.0173     1.3308     0.1140 C.2     
   2 N2            -0.0005     0.0025     0.2068 N.2     
   3 C3             1.1380    -0.6677     0.2933 C.2     
   4 C4             2.3418     0.0100     0.2883 C.2     
   5 C5             2.3321     1.4067     0.1910 C.2     
   6 N6             1.1468     2.0477     0.1050 N.am    
   7 C7            -1.2493     2.0037     0.0181 C.2     
   8 C8            -1.2646     3.3630    -0.0769 C.2     
   9 C9            -0.0539     4.0700    -0.0777 C.2     
  10 C10            1.1205     3.4061     0.0093 C.2     
  11 O11            3.3788     2.0352     0.1844 O.2     
  12 C12            2.4150     4.1776     0.0006 C.3     
  13 I13            4.1525    -1.0350     0.4250 I       
  14 C14            1.1207    -2.1710     0.3976 C.3     
  15 C15            0.4602    -2.5832     1.7147 C.3     
  16 C16            0.5539    -4.1015     1.8789 C.3     
  17 Br17           0.1034    -2.9208    -1.1084 Br      
  18 H18           -2.1750     1.4475     0.0194 H       
  19 H19           -2.2031     3.8921    -0.1515 H       
  20 H20           -0.0593     5.1474    -0.1531 H       
  21 H21            3.0207     3.8615    -0.8488 H       
  22 H22            2.2022     5.2434    -0.0815 H       
  23 H23            2.9585     3.9858     0.9257 H       
  24 H24            2.1427    -2.5489     0.3697 H       
  25 H25            0.9707    -2.0958     2.5453 H       
  26 H26           -0.5875    -2.2828     1.7054 H       
  27 H27            1.6016    -4.4020     1.8882 H       
  28 H28            0.0834    -4.3952     2.8172 H       
  29 H29            0.0435    -4.5890     1.0483 H       
@<TRIPOS>BOND
   1    1    2 2
   2    1    6 1
   3    1    7 1
   4    2    3 1
   5    3    4 2
   6    3   14 1
   7    4    5 1
   8    4   13 1
   9    5    6 am
  10    5   11 2
  11    6   10 1
  12    7    8 2
  13    7   18 1
  14    8    9 1
  15    8   19 1
  16    9   10 2
  17    9   20 1
  18   10   12 1
  19   12   21 1
  20   12   22 1
  21   12   23 1
  22   14   15 1
  23   14   17 1
  24   14   24 1
  25   15   16 1
  26   15   25 1
  27   15   26 1
  28   16   27 1
  29   16   28 1
  30   16   29 1

#	End of record

