#	Name: ASD08150317
#	Creating user name:	WinNT
#	Creation time:	15. 06. 2019 21:15

#	Modifying user name:	WinNT
#	Modification time:	15. 06. 2019 21:15

#	Program:	/corina/corina34_cracker 3.40 0067  02.08.2006

@<TRIPOS>MOLECULE
ASD08150317
  86   93    0    0    0
SMALL
NO_CHARGES


@<TRIPOS>ATOM
   1 N1            -0.4376     1.6440     1.1301 N.am    
   2 C2            -0.3867     0.7867     2.1680 C.2     
   3 C3             0.7698     0.0202     2.4176 C.2     
   4 C4             1.8541     0.1367     1.6094 C.2     
   5 C5             1.8040     1.0374     0.5161 C.ar    
   6 C6             2.9005     1.1960    -0.3528 C.ar    
   7 N7             2.8514     2.0273    -1.3608 N.ar    
   8 C8             1.7665     2.7708    -1.6255 C.ar    
   9 C9             0.6165     2.6760    -0.8035 C.ar    
  10 C10            0.6376     1.7860     0.2959 C.ar    
  11 C11           -0.5089     3.4556    -1.0876 C.ar    
  12 C12           -0.4867     4.3153    -2.1740 C.ar    
  13 C13            0.6550     4.4037    -2.9829 C.ar    
  14 C14            1.7572     3.6520    -2.7193 C.ar    
  15 O15           -1.3538     0.6724     2.9017 O.2     
  16 C16           -1.6762     5.1454    -2.4828 C.ar    
  17 C17           -1.5985     2.3892     0.9005 C.ar    
  18 C18           -1.6027     3.7586     1.1409 C.ar    
  19 C19           -2.7448     4.4957     0.9153 C.ar    
  20 C20           -3.8987     3.8659     0.4447 C.ar    
  21 C21           -3.8912     2.4909     0.2043 C.ar    
  22 C22           -2.7440     1.7602     0.4270 C.ar    
  23 C23           -5.1252     4.6532     0.2022 C.2     
  24 C24           -2.8744     4.9546    -1.7763 C.ar    
  25 C25           -5.6763     4.5772    -0.9856 C.2     
  26 C26           -6.9140     5.3369    -1.3745 C.3     
  27 N27           -7.5162     5.9267    -0.1703 N.am    
  28 C28           -6.6067     6.5621     0.7988 C.3     
  29 C29           -5.6603     5.4812     1.3326 C.3     
  30 N30           -3.9395     5.6727    -2.0273 N.ar    
  31 C31           -3.9401     6.6231    -2.9680 C.ar    
  32 C32           -2.7681     6.8762    -3.7247 C.ar    
  33 C33           -1.6115     6.1202    -3.4680 C.ar    
  34 C34           -8.8471     5.8883     0.0386 C.2     
  35 O35           -9.3182     6.3827     1.0409 O.2     
  36 C36           -9.7499     5.2309    -0.9732 C.3     
  37 N37          -11.1440     5.3249    -0.5197 N.3     
  38 C38           -5.0943     7.3839    -3.2236 C.ar    
  39 C39           -5.0711     8.3455    -4.1863 C.ar    
  40 C40           -3.9182     8.5924    -4.9292 C.ar    
  41 C41           -2.7808     7.8769    -4.7112 C.ar    
  42 C42          -11.3621     4.5111     0.6844 C.3     
  43 C43          -12.0733     4.9365    -1.5898 C.3     
  44 C44          -13.5128     5.1237    -1.1046 C.3     
  45 N45          -13.7309     4.3099     0.0994 N.3     
  46 C46          -12.8016     4.6983     1.1696 C.3     
  47 C47          -15.1249     4.4039     0.5530 C.3     
  48 C48           -5.1346     1.8071    -0.3030 C.3     
  49 F49           -4.8820     0.4407    -0.4657 F       
  50 F50           -6.1725     1.9830     0.6183 F       
  51 F51           -5.5035     2.3627    -1.5328 F       
  52 H52            0.7932    -0.6617     3.2548 H       
  53 H53            2.7424    -0.4482     1.7970 H       
  54 H54            3.7987     0.6208    -0.1833 H       
  55 H55           -1.3889     3.3878    -0.4652 H       
  56 H56            0.6591     5.0776    -3.8269 H       
  57 H57            2.6280     3.7328    -3.3530 H       
  58 H58           -0.7099     4.2450     1.5053 H       
  59 H59           -2.7475     5.5593     1.1026 H       
  60 H60           -2.7363     0.6970     0.2373 H       
  61 H61           -2.9184     4.1970    -1.0078 H       
  62 H62           -5.2167     3.9357    -1.7229 H       
  63 H63           -6.6502     6.1290    -2.0752 H       
  64 H64           -7.6264     4.6575    -1.8426 H       
  65 H65           -6.0340     7.3480     0.3064 H       
  66 H66           -7.1824     6.9852     1.6220 H       
  67 H67           -6.2004     4.8421     2.0311 H       
  68 H68           -4.8277     5.9555     1.8521 H       
  69 H69           -0.7021     6.2878    -4.0259 H       
  70 H70           -9.6458     5.7344    -1.9344 H       
  71 H71           -9.4727     4.1822    -1.0805 H       
  72 H72           -5.9968     7.2055    -2.6578 H       
  73 H73           -5.9610     8.9267    -4.3780 H       
  74 H74           -3.9271     9.3614    -5.6875 H       
  75 H75           -1.8933     8.0771    -5.2931 H       
  76 H76          -11.1914     3.4606     0.4491 H       
  77 H77          -10.6710     4.8260     1.4662 H       
  78 H78          -11.9007     5.5615    -2.4660 H       
  79 H79          -11.9106     3.8908    -1.8509 H       
  80 H80          -13.6835     6.1742    -0.8694 H       
  81 H81          -14.2039     4.8088    -1.8865 H       
  82 H82          -12.9742     4.0733     2.0457 H       
  83 H83          -12.9642     5.7440     1.4307 H       
  84 H84          -15.7882     4.0470    -0.2349 H       
  85 H85          -15.2587     3.7923     1.4453 H       
  86 H86          -15.3623     5.4421     0.7851 H       
@<TRIPOS>BOND
   1    1    2 am
   2    1   10 1
   3    1   17 1
   4    2    3 1
   5    2   15 2
   6    3    4 2
   7    3   52 1
   8    4    5 1
   9    4   53 1
  10    5    6 ar
  11    5   10 ar
  12    6    7 ar
  13    6   54 1
  14    7    8 ar
  15    8    9 ar
  16    8   14 ar
  17    9   10 ar
  18    9   11 ar
  19   11   12 ar
  20   11   55 1
  21   12   13 ar
  22   12   16 1
  23   13   14 ar
  24   13   56 1
  25   14   57 1
  26   16   24 ar
  27   16   33 ar
  28   17   18 ar
  29   17   22 ar
  30   18   19 ar
  31   18   58 1
  32   19   20 ar
  33   19   59 1
  34   20   21 ar
  35   20   23 1
  36   21   22 ar
  37   21   48 1
  38   22   60 1
  39   23   25 2
  40   23   29 1
  41   24   30 ar
  42   24   61 1
  43   25   26 1
  44   25   62 1
  45   26   27 1
  46   26   63 1
  47   26   64 1
  48   27   28 1
  49   27   34 am
  50   28   29 1
  51   28   65 1
  52   28   66 1
  53   29   67 1
  54   29   68 1
  55   30   31 ar
  56   31   32 ar
  57   31   38 ar
  58   32   33 ar
  59   32   41 ar
  60   33   69 1
  61   34   35 2
  62   34   36 1
  63   36   37 1
  64   36   70 1
  65   36   71 1
  66   37   42 1
  67   37   43 1
  68   38   39 ar
  69   38   72 1
  70   39   40 ar
  71   39   73 1
  72   40   41 ar
  73   40   74 1
  74   41   75 1
  75   42   46 1
  76   42   76 1
  77   42   77 1
  78   43   44 1
  79   43   78 1
  80   43   79 1
  81   44   45 1
  82   44   80 1
  83   44   81 1
  84   45   46 1
  85   45   47 1
  86   46   82 1
  87   46   83 1
  88   47   84 1
  89   47   85 1
  90   47   86 1
  91   48   49 1
  92   48   50 1
  93   48   51 1

#	End of record

