#	Name: ASD03731615
#	Creating user name:	WinNT
#	Creation time:	15. 06. 2019 20:46

#	Modifying user name:	WinNT
#	Modification time:	15. 06. 2019 20:46

#	Program:	/corina/corina34_cracker 3.40 0067  02.08.2006

@<TRIPOS>MOLECULE
ASD03731615
  42   43    0    0    0
SMALL
NO_CHARGES


@<TRIPOS>ATOM
   1 C1             0.4932     1.6853    -0.1976 C.2     
   2 C2             0.5560     0.2139    -0.2956 C.ar    
   3 C3             1.7938    -0.4326    -0.3455 C.ar    
   4 C4             1.8483    -1.8054    -0.4365 C.ar    
   5 C5             0.6739    -2.5482    -0.4787 C.ar    
   6 C6            -0.5595    -1.9087    -0.4298 C.ar    
   7 C7            -0.6222    -0.5366    -0.3329 C.ar    
   8 O8             1.5193     2.3365    -0.1601 O.2     
   9 N9            -0.7017     2.3075    -0.1552 N.am    
  10 S10           -0.7750     3.9435     0.0901 S.o2    
  11 O11            0.0880     4.4854    -0.9002 O.2     
  12 O12           -2.1656     4.2360     0.0894 O.2     
  13 C13           -0.0746     4.1849     1.7459 C.3     
  14 C14           -0.0630     5.6774     2.0822 C.3     
  15 C15           -0.9262     3.4372     2.7739 C.3     
  16 O16            0.7317    -3.9010    -0.5684 O.3     
  17 C17            1.1869    -4.5930     0.5091 C.ar    
  18 C18            1.2013    -5.9804     0.4883 C.ar    
  19 C19            1.6647    -6.6818     1.5841 C.ar    
  20 C20            2.1146    -6.0018     2.7024 C.ar    
  21 C21            2.1011    -4.6186     2.7251 C.ar    
  22 C22            1.6432    -3.9132     1.6290 C.ar    
  23 C23            1.6801    -8.1886     1.5622 C.3     
  24 F24            1.1817    -8.6423     0.3363 F       
  25 F25            2.9923    -8.6440     1.7295 F       
  26 F26            0.8806    -8.6782     2.6007 F       
  27 Cl27           2.6961    -6.8858     4.0787 Cl      
  28 H28            2.7066     0.1438    -0.3131 H       
  29 H29            2.8046    -2.3058    -0.4754 H       
  30 H30           -1.4696    -2.4891    -0.4635 H       
  31 H31           -1.5807    -0.0408    -0.2905 H       
  32 H32           -1.5186     1.7969    -0.2683 H       
  33 H33            0.9446     3.7993     1.7690 H       
  34 H34           -1.0822     6.0631     2.0591 H       
  35 H35            0.3579     5.8225     3.0771 H       
  36 H36            0.5437     6.2101     1.3499 H       
  37 H37           -0.8630     2.3651     2.5872 H       
  38 H38           -0.5584     3.6536     3.7768 H       
  39 H39           -1.9639     3.7601     2.6899 H       
  40 H40            0.8500    -6.5115    -0.3841 H       
  41 H41            2.4526    -4.0898     3.5988 H       
  42 H42            1.6370    -2.8333     1.6454 H       
@<TRIPOS>BOND
   1    1    2 1
   2    1    8 2
   3    1    9 am
   4    2    3 ar
   5    2    7 ar
   6    3    4 ar
   7    3   28 1
   8    4    5 ar
   9    4   29 1
  10    5    6 ar
  11    5   16 1
  12    6    7 ar
  13    6   30 1
  14    7   31 1
  15    9   10 am
  16    9   32 1
  17   10   11 2
  18   10   12 2
  19   10   13 1
  20   13   14 1
  21   13   15 1
  22   13   33 1
  23   14   34 1
  24   14   35 1
  25   14   36 1
  26   15   37 1
  27   15   38 1
  28   15   39 1
  29   16   17 1
  30   17   18 ar
  31   17   22 ar
  32   18   19 ar
  33   18   40 1
  34   19   20 ar
  35   19   23 1
  36   20   21 ar
  37   20   27 1
  38   21   22 ar
  39   21   41 1
  40   22   42 1
  41   23   24 1
  42   23   25 1
  43   23   26 1

#	End of record

