#	Name: ASD01900381
#	Creating user name:	WinNT
#	Creation time:	15. 06. 2019 19:51

#	Modifying user name:	WinNT
#	Modification time:	15. 06. 2019 19:51

#	Program:	/corina/corina34_cracker 3.40 0067  02.08.2006

@<TRIPOS>MOLECULE
ASD01900381
  25   27    0    0    0
SMALL
NO_CHARGES


@<TRIPOS>ATOM
   1 C1             0.0285     1.4031     0.4577 C.ar    
   2 C2             0.0595     0.0195     0.5730 C.ar    
   3 N3             1.1760    -0.6547     0.4169 N.ar    
   4 C4             2.3248    -0.0416     0.1418 C.ar    
   5 C5             2.3677     1.3596     0.0107 C.ar    
   6 C6             1.1917     2.0910     0.1732 C.ar    
   7 C7             3.6939    -0.5123    -0.0813 C.2     
   8 N8             4.4409     0.5334    -0.3172 N.2     
   9 N9             3.6656     1.6966    -0.2694 N.pl3   
  10 N10            4.1242    -1.8424    -0.0478 N.pl3   
  11 C11            5.4839    -2.1399    -0.1683 C.ar    
  12 C12            6.4473    -1.2171     0.2317 C.ar    
  13 C13            5.8950    -3.3633    -0.6837 C.ar    
  14 N14            7.1764    -3.6481    -0.7986 N.ar    
  15 C15            8.1137    -2.7949    -0.4340 C.ar    
  16 C16            7.7837    -1.5587     0.0928 C.ar    
  17 Cl17           9.0286    -0.4459     0.5678 Cl      
  18 H18           -0.9011     1.9379     0.5854 H       
  19 H19           -0.8532    -0.5132     0.7959 H       
  20 H20            1.1905     3.1669     0.0788 H       
  21 H21            3.9944     2.5979    -0.4124 H       
  22 H22            3.4787    -2.5585     0.0590 H       
  23 H23            6.1605    -0.2591     0.6397 H       
  24 H24            5.1566    -4.0882    -0.9929 H       
  25 H25            9.1531    -3.0665    -0.5444 H       
@<TRIPOS>BOND
   1    1    2 ar
   2    1    6 ar
   3    1   18 1
   4    2    3 ar
   5    2   19 1
   6    3    4 ar
   7    4    5 ar
   8    4    7 1
   9    5    6 ar
  10    5    9 1
  11    6   20 1
  12    7    8 2
  13    7   10 1
  14    8    9 1
  15    9   21 1
  16   10   11 1
  17   10   22 1
  18   11   12 ar
  19   11   13 ar
  20   12   16 ar
  21   12   23 1
  22   13   14 ar
  23   13   24 1
  24   14   15 ar
  25   15   16 ar
  26   15   25 1
  27   16   17 1

#	End of record

