#	Name: ASD05610001
#	Creating user name:	WinNT
#	Creation time:	15. 06. 2019 21:01

#	Modifying user name:	WinNT
#	Modification time:	15. 06. 2019 21:01

#	Program:	/corina/corina34_cracker 3.40 0067  02.08.2006

@<TRIPOS>MOLECULE
ASD05610001
  31   33    0    0    0
SMALL
NO_CHARGES


@<TRIPOS>ATOM
   1 C1            -0.0168     1.3876     0.0097 C.ar    
   2 C2            -1.2523     2.0598     0.0318 C.ar    
   3 C3            -2.4425     1.3299     0.0463 C.ar    
   4 C4            -2.4014    -0.0360     0.0388 C.ar    
   5 C5            -1.1855    -0.7047     0.0174 C.ar    
   6 C6             0.0021    -0.0041     0.0020 C.ar    
   7 C7             0.4031     3.5952     0.0150 C.2     
   8 C8            -0.9350     3.4899     0.0346 C.2     
   9 N9             0.9690     2.3495     0.0054 N.pl3   
  10 C10           -1.9235     4.6273     0.0503 C.3     
  11 C11           -2.3322     4.9279     1.4937 C.3     
  12 N12           -4.4012     5.7132     2.0603 N.am    
  13 C13           -4.3664     4.4033     2.3306 C.2     
  14 N14           -3.1792     3.8476     2.0282 N.am    
  15 C15           -3.2315     6.1468     1.5506 C.2     
  16 C16           -5.5671     6.5701     2.2896 C.3     
  17 O17           -5.3026     3.7847     2.7976 O.2     
  18 O18           -2.9555     7.2769     1.2091 O.2     
  19 Cl19           1.5153    -0.8547    -0.0175 Cl      
  20 H20           -3.3926     1.8432     0.0636 H       
  21 H21           -3.3226    -0.5996     0.0500 H       
  22 H22           -1.1692    -1.7846     0.0122 H       
  23 H23            0.9518     4.5254     0.0117 H       
  24 H24            1.9222     2.1705    -0.0046 H       
  25 H25           -1.4651     5.5131    -0.3895 H       
  26 H26           -2.8056     4.3500    -0.5269 H       
  27 H27           -1.4508     5.0721     2.1186 H       
  28 H28           -2.9297     2.9169     2.1398 H       
  29 H29           -6.3791     5.9748     2.7071 H       
  30 H30           -5.3026     7.3642     2.9879 H       
  31 H31           -5.8870     7.0089     1.3445 H       
@<TRIPOS>BOND
   1    1    6 ar
   2    1    9 1
   3    1    2 ar
   4    2    3 ar
   5    2    8 1
   6    3    4 ar
   7    3   20 1
   8    4    5 ar
   9    4   21 1
  10    5    6 ar
  11    5   22 1
  12    6   19 1
  13    7    8 2
  14    7    9 1
  15    7   23 1
  16    8   10 1
  17    9   24 1
  18   10   11 1
  19   10   25 1
  20   10   26 1
  21   11   15 1
  22   11   14 1
  23   11   27 1
  24   12   13 am
  25   12   15 am
  26   12   16 1
  27   13   14 am
  28   13   17 2
  29   14   28 1
  30   15   18 2
  31   16   29 1
  32   16   30 1
  33   16   31 1

#	End of record

