#	Name: ASD05430281
#	Creating user name:	WinNT
#	Creation time:	15. 06. 2019 21:00

#	Modifying user name:	WinNT
#	Modification time:	15. 06. 2019 21:00

#	Program:	/corina/corina34_cracker 3.40 0067  02.08.2006

@<TRIPOS>MOLECULE
ASD05430281
  75   81    0    0    0
SMALL
NO_CHARGES


@<TRIPOS>ATOM
   1 C1             0.1790     1.1748    -1.0318 C.ar    
   2 C2             0.0198    -0.0137    -0.3173 C.ar    
   3 C3             1.0453    -0.4887     0.4900 C.ar    
   4 C4             2.2265     0.2115     0.5892 C.ar    
   5 C5             2.3920     1.4017    -0.1242 C.ar    
   6 C6             1.3532     1.8792    -0.9388 C.ar    
   7 C7             4.9338    -0.0126    -0.0978 C.3     
   8 C8             4.8238     1.4960     0.0670 C.2     
   9 C9             3.6531     2.1540    -0.0208 C.2     
  10 C10            6.1068    -0.3162    -1.0273 C.3     
  11 C11            7.4514     0.2364    -0.5693 C.3     
  12 N12            7.3134     1.5993    -0.0754 N.pl3   
  13 C13            6.1093     2.1817     0.3323 C.2     
  14 N14            6.3232     3.3041     0.9290 N.2     
  15 C15            8.6456     3.2962    -1.2264 C.ar    
  16 C16            9.1530     4.5821    -1.2517 C.ar    
  17 C17            8.4254     2.6156    -2.4091 C.ar    
  18 C18            8.7123     3.2199    -3.6186 C.ar    
  19 C19            9.2203     4.5074    -3.6452 C.ar    
  20 C20            9.4406     5.1883    -2.4596 C.ar    
  21 N21           -1.1794    -0.7299    -0.4144 N.pl3   
  22 C22           -2.4337    -0.2291    -0.2660 C.2     
  23 C23           -1.3102    -2.0682    -0.6831 C.2     
  24 C24           -2.6293    -2.3386    -0.6844 C.2     
  25 N25           -3.2906    -1.2002    -0.4277 N.2     
  26 C26           -3.2547    -3.6864    -0.9356 C.3     
  27 C27            8.3383     2.6339     0.0919 C.3     
  28 O28            7.7181     3.5689     0.9993 O.3     
  29 C29            9.6084     2.0415     0.7057 C.3     
  30 C30            6.1714    -1.7932    -1.4530 C.3     
  31 O31            6.4340    -1.2818    -2.7755 O.3     
  32 C32            5.7989    -0.0158    -2.5044 C.3     
  33 O33           10.5887     3.0702     0.8572 O.3     
  34 F34            9.5015     5.0990    -4.8268 F       
  35 Si35          10.1255     6.9259    -2.4934 Si      
  36 C36            8.7198     8.1461    -2.5703 C.3     
  37 C37           11.1271     7.2287    -0.9520 C.3     
  38 C38           11.2127     7.1358    -3.9917 C.3     
  39 C39            0.8735     2.9505    -1.8815 C.3     
  40 C40           -0.4272     2.1669    -1.9888 C.3     
  41 H41            0.9158    -1.4086     1.0409 H       
  42 H42            3.0236    -0.1581     1.2173 H       
  43 H43            5.1074    -0.4753     0.8737 H       
  44 H44            4.0127    -0.4015    -0.5320 H       
  45 H45            3.6388     3.2338    -0.0153 H       
  46 H46            7.8456    -0.3949     0.2270 H       
  47 H47            8.1466     0.2285    -1.4088 H       
  48 H48            9.3244     5.1131    -0.3270 H       
  49 H49            8.0294     1.6110    -2.3882 H       
  50 H50            8.5404     2.6878    -4.5426 H       
  51 H51           -2.6803     0.7999    -0.0500 H       
  52 H52           -0.5090    -2.7705    -0.8598 H       
  53 H53           -3.3642    -4.2180     0.0096 H       
  54 H54           -4.2351    -3.5525    -1.3928 H       
  55 H55           -2.6173    -4.2637    -1.6054 H       
  56 H56            9.3757     1.6149     1.6814 H       
  57 H57            9.9983     1.2615     0.0518 H       
  58 H58            7.0070    -2.3415    -1.0180 H       
  59 H59            5.2212    -2.3198    -1.3643 H       
  60 H60            4.7344     0.0028    -2.7382 H       
  61 H61            6.3396     0.8431    -2.9019 H       
  62 H62           11.4221     2.7657     1.2416 H       
  63 H63            8.0837     8.0233    -1.6937 H       
  64 H64            9.1195     9.1600    -2.5900 H       
  65 H65            8.1338     7.9690    -3.4721 H       
  66 H66           11.9495     6.5147    -0.9071 H       
  67 H67           11.5268     8.2426    -0.9717 H       
  68 H68           10.4910     7.1058    -0.0754 H       
  69 H69           10.6267     6.9587    -4.8935 H       
  70 H70           11.6124     8.1497    -4.0114 H       
  71 H71           12.0351     6.4219    -3.9467 H       
  72 H72            0.7608     3.9273    -1.4111 H       
  73 H73            1.4327     2.9918    -2.8162 H       
  74 H74           -0.6116     1.7612    -2.9836 H       
  75 H75           -1.2892     2.6936    -1.5792 H       
@<TRIPOS>BOND
   1    1    2 ar
   2    1    6 ar
   3    1   40 1
   4    2    3 ar
   5    2   21 1
   6    3    4 ar
   7    3   41 1
   8    4    5 ar
   9    4   42 1
  10    5    6 ar
  11    5    9 1
  12    6   39 1
  13    7    8 1
  14    7   10 1
  15    7   43 1
  16    7   44 1
  17    8    9 2
  18    8   13 1
  19    9   45 1
  20   10   11 1
  21   10   30 1
  22   10   32 1
  23   11   12 1
  24   11   46 1
  25   11   47 1
  26   12   13 1
  27   12   27 1
  28   13   14 2
  29   14   28 1
  30   15   16 ar
  31   15   17 ar
  32   15   27 1
  33   16   20 ar
  34   16   48 1
  35   17   18 ar
  36   17   49 1
  37   18   19 ar
  38   18   50 1
  39   19   20 ar
  40   19   34 1
  41   20   35 1
  42   21   22 1
  43   21   23 1
  44   22   25 2
  45   22   51 1
  46   23   24 2
  47   23   52 1
  48   24   25 1
  49   24   26 1
  50   26   53 1
  51   26   54 1
  52   26   55 1
  53   27   28 1
  54   27   29 1
  55   29   33 1
  56   29   56 1
  57   29   57 1
  58   30   31 1
  59   30   58 1
  60   30   59 1
  61   31   32 1
  62   32   60 1
  63   32   61 1
  64   33   62 1
  65   35   36 1
  66   35   37 1
  67   35   38 1
  68   36   63 1
  69   36   64 1
  70   36   65 1
  71   37   66 1
  72   37   67 1
  73   37   68 1
  74   38   69 1
  75   38   70 1
  76   38   71 1
  77   39   40 1
  78   39   72 1
  79   39   73 1
  80   40   74 1
  81   40   75 1

#	End of record

