#	Name: ASD01890157
#	Creating user name:	WinNT
#	Creation time:	15. 06. 2019 19:50

#	Modifying user name:	WinNT
#	Modification time:	15. 06. 2019 19:50

#	Program:	/corina/corina34_cracker 3.40 0067  02.08.2006

@<TRIPOS>MOLECULE
ASD01890157
  39   41    0    0    0
SMALL
NO_CHARGES


@<TRIPOS>ATOM
   1 C1            -0.8634    -0.2181    -1.0816 C.2     
   2 C2            -0.0695     0.1286     0.1515 C.3     
   3 C3             1.2898    -0.5715     0.0964 C.3     
   4 C4             2.1534    -0.1015     1.2687 C.3     
   5 O5            -0.3534    -0.8631    -1.9669 O.2     
   6 O6            -2.1388     0.1850    -1.1940 O.3     
   7 C7             2.4657     1.3639     1.1068 C.2     
   8 N8             3.0289     1.8948     0.0610 N.2     
   9 C9             3.1621     3.2336     0.2444 C.ar    
  10 C10            2.6314     3.5277     1.5121 C.ar    
  11 N11            2.1943     2.3250     2.0305 N.pl3   
  12 C12            3.6855     4.2659    -0.5378 C.ar    
  13 C13            3.6776     5.5484    -0.0664 C.ar    
  14 C14            3.1542     5.8392     1.1850 C.ar    
  15 C15            2.6321     4.8363     1.9744 C.ar    
  16 N16            4.2334     6.6385    -0.8994 N.pl3   
  17 O17            4.6948     6.3900    -1.9989 O.2     
  18 O18            4.2295     7.7839    -0.4852 O.2     
  19 C19            1.0908    -2.0627     0.1853 C.ar    
  20 C20            1.5229    -2.8798    -0.8427 C.ar    
  21 C21            1.3406    -4.2475    -0.7618 C.ar    
  22 C22            0.7257    -4.7987     0.3482 C.ar    
  23 C23            0.2935    -3.9804     1.3767 C.ar    
  24 C24            0.4814    -2.6134     1.2972 C.ar    
  25 Cl25           0.4959    -6.5164     0.4503 Cl      
  26 H26            0.0791     1.2075     0.1966 H       
  27 H27           -0.6122    -0.2008     1.0375 H       
  28 H28            1.7869    -0.3266    -0.8422 H       
  29 H29            1.6137    -0.2570     2.2029 H       
  30 H30            3.0826    -0.6712     1.2868 H       
  31 H31           -2.6074    -0.0614    -2.0032 H       
  32 H32            1.7734     2.1902     2.8939 H       
  33 H33            4.0961     4.0507    -1.5132 H       
  34 H34            3.1559     6.8580     1.5436 H       
  35 H35            2.2256     5.0681     2.9478 H       
  36 H36            2.0026    -2.4494    -1.7093 H       
  37 H37            1.6779    -4.8858    -1.5651 H       
  38 H38           -0.1866    -4.4101     2.2434 H       
  39 H39            0.1481    -1.9749     2.1019 H       
@<TRIPOS>BOND
   1    1    2 1
   2    1    5 2
   3    1    6 1
   4    2    3 1
   5    2   26 1
   6    2   27 1
   7    3    4 1
   8    3   19 1
   9    3   28 1
  10    4    7 1
  11    4   29 1
  12    4   30 1
  13    6   31 1
  14    7    8 2
  15    7   11 1
  16    8    9 1
  17    9   10 ar
  18    9   12 ar
  19   10   11 1
  20   10   15 ar
  21   11   32 1
  22   12   13 ar
  23   12   33 1
  24   13   14 ar
  25   13   16 1
  26   14   15 ar
  27   14   34 1
  28   15   35 1
  29   16   17 2
  30   16   18 2
  31   19   20 ar
  32   19   24 ar
  33   20   21 ar
  34   20   36 1
  35   21   22 ar
  36   21   37 1
  37   22   23 ar
  38   22   25 1
  39   23   24 ar
  40   23   38 1
  41   24   39 1

#	End of record

