#	Name: ASD01911805
#	Creating user name:	WinNT
#	Creation time:	15. 06. 2019 19:58

#	Modifying user name:	WinNT
#	Modification time:	15. 06. 2019 19:58

#	Program:	/corina/corina34_cracker 3.40 0067  02.08.2006

@<TRIPOS>MOLECULE
ASD01911805
  36   38    0    0    0
SMALL
NO_CHARGES


@<TRIPOS>ATOM
   1 C1             0.1411     0.8412    -1.0295 C.2     
   2 N2             0.0454    -0.3372    -0.3351 N.pl3   
   3 C3             1.2095    -1.0246    -0.0124 C.2     
   4 C4             2.4523    -0.4748    -0.4173 C.2     
   5 C5             2.4497     0.6960    -1.1007 C.2     
   6 N6             1.2966     1.3185    -1.3862 N.2     
   7 C7             0.8733    -2.1536     0.6700 C.2     
   8 C8            -0.5411    -2.1758     0.7788 C.2     
   9 C9            -1.0194    -1.0337     0.1440 C.2     
  10 C10           -1.3477    -3.2085     1.4372 C.2     
  11 O11           -2.5596    -3.1101     1.4613 O.2     
  12 N12           -2.3493    -0.6696     0.0214 N.pl3   
  13 C13           -2.8400     0.4340     0.7265 C.ar    
  14 C14           -4.1908     0.7611     0.6577 C.ar    
  15 C15           -4.6717     1.8528     1.3561 C.ar    
  16 C16           -3.8110     2.6190     2.1225 C.ar    
  17 C17           -2.4681     2.2958     2.1919 C.ar    
  18 C18           -1.9817     1.2024     1.5013 C.ar    
  19 I19           -4.5439     4.2726     3.1794 I       
  20 F20           -5.0308     0.0133    -0.0909 F       
  21 O21           -0.7455    -4.2673     2.0161 O.3     
  22 C22           -0.7501    -6.3691     3.2459 C.3     
  23 C23           -1.6064    -5.2504     2.6492 C.3     
  24 H24           -0.7586     1.3796    -1.2883 H       
  25 H25            3.3799    -0.9773    -0.1862 H       
  26 H26            3.3855     1.1319    -1.4180 H       
  27 H27            1.5567    -2.8950     1.0568 H       
  28 H28           -2.9409    -1.1799    -0.5535 H       
  29 H29           -5.7197     2.1082     1.3034 H       
  30 H30           -1.7994     2.8963     2.7907 H       
  31 H31           -0.9337     0.9482     1.5606 H       
  32 H32           -0.1737    -6.8473     2.4540 H       
  33 H33           -0.0703    -5.9500     3.9878 H       
  34 H34           -1.3963    -7.1071     3.7212 H       
  35 H35           -2.1828    -4.7723     3.4411 H       
  36 H36           -2.2862    -5.6695     1.9073 H       
@<TRIPOS>BOND
   1    1    2 1
   2    1    6 2
   3    1   24 1
   4    2    3 1
   5    2    9 1
   6    3    4 1
   7    3    7 2
   8    4    5 2
   9    4   25 1
  10    5    6 1
  11    5   26 1
  12    7    8 1
  13    7   27 1
  14    8    9 2
  15    8   10 1
  16    9   12 1
  17   10   11 2
  18   10   21 1
  19   12   13 1
  20   12   28 1
  21   13   14 ar
  22   13   18 ar
  23   14   15 ar
  24   14   20 1
  25   15   16 ar
  26   15   29 1
  27   16   17 ar
  28   16   19 1
  29   17   18 ar
  30   17   30 1
  31   18   31 1
  32   21   23 1
  33   22   23 1
  34   22   32 1
  35   22   33 1
  36   22   34 1
  37   23   35 1
  38   23   36 1

#	End of record

