#	Name: ASD04930013
#	Creating user name:	WinNT
#	Creation time:	15. 06. 2019 20:56

#	Modifying user name:	WinNT
#	Modification time:	15. 06. 2019 20:56

#	Program:	/corina/corina34_cracker 3.40 0067  02.08.2006

@<TRIPOS>MOLECULE
ASD04930013
  26   28    0    0    0
SMALL
NO_CHARGES


@<TRIPOS>ATOM
   1 C1            -0.0467     1.3978    -0.1569 C.ar    
   2 C2            -0.0271     0.0111    -0.1984 C.ar    
   3 C3            -1.1994    -0.7159    -0.1251 C.ar    
   4 C4            -2.4095    -0.0532    -0.0081 C.ar    
   5 C5            -2.4297     1.3575     0.0299 C.ar    
   6 C6            -1.2417     2.0774    -0.0377 C.ar    
   7 N7            -3.6199    -0.7249     0.0800 N.am    
   8 C8            -4.7788    -0.0452    -0.0254 C.2     
   9 O9            -4.8126     1.2760    -0.2828 O.3     
  10 C10           -3.7479     2.0070     0.1431 C.2     
  11 O11           -3.8759     3.1308     0.5904 O.2     
  12 O12           -5.8273    -0.6443     0.1160 O.2     
  13 H13            0.8803     1.9491    -0.2137 H       
  14 C14           -3.6371    -2.0702     0.2724 C.2     
  15 C15           -4.7942    -2.8897    -0.2382 C.3     
  16 C16           -4.7184    -4.4073    -0.0594 C.3     
  17 C17           -5.6806    -3.5831     0.7983 C.3     
  18 H18            0.9165    -0.5064    -0.2896 H       
  19 H19           -1.1723    -1.7950    -0.1593 H       
  20 H20           -1.2549     3.1568    -0.0048 H       
  21 H21           -2.8216    -2.5520     0.7913 H       
  22 H22           -5.2752    -2.5127    -1.1407 H       
  23 H23           -5.1499    -5.0287    -0.8441 H       
  24 H24           -3.8316    -4.8131     0.4275 H       
  25 H25           -5.4269    -3.4466     1.8495 H       
  26 H26           -6.7452    -3.6623     0.5779 H       
@<TRIPOS>BOND
   1    1    2 ar
   2    1   13 1
   3    1    6 ar
   4    2    3 ar
   5    2   18 1
   6    3    4 ar
   7    3   19 1
   8    4    5 ar
   9    4    7 1
  10    5    6 ar
  11    5   10 1
  12    6   20 1
  13    7    8 am
  14    7   14 1
  15    8    9 1
  16    8   12 2
  17    9   10 1
  18   10   11 2
  19   14   15 1
  20   14   21 1
  21   15   16 1
  22   15   17 1
  23   15   22 1
  24   16   17 1
  25   16   23 1
  26   16   24 1
  27   17   25 1
  28   17   26 1

#	End of record

