#	Name: ASD01914152
#	Creating user name:	WinNT
#	Creation time:	15. 06. 2019 20:02

#	Modifying user name:	WinNT
#	Modification time:	15. 06. 2019 20:02

#	Program:	/corina/corina34_cracker 3.40 0067  02.08.2006

@<TRIPOS>MOLECULE
ASD01914152
  52   56    0    0    0
SMALL
NO_CHARGES


@<TRIPOS>ATOM
   1 C1            -0.8260     1.6245    -0.1863 C.2     
   2 C2            -0.6674     0.1645    -0.1782 C.2     
   3 N3            -1.6362    -0.7373    -0.1140 N.2     
   4 C4            -1.0197    -1.9281    -0.1345 C.2     
   5 N5             0.2605    -1.7094    -0.2080 N.2     
   6 O6             0.4882    -0.5186    -0.2404 O.3     
   7 C7            -1.6895    -3.2771    -0.0817 C.3     
   8 C8            -1.3408    -4.0702    -1.3432 C.3     
   9 C9            -2.0470    -5.4275    -1.3059 C.3     
  10 C10           -1.5604    -6.2184    -0.0876 C.3     
  11 N11           -1.7596    -5.4013     1.1171 N.am    
  12 C12           -1.1989    -4.0437     1.1506 C.3     
  13 C13           -0.0738    -6.5430    -0.2471 C.3     
  14 C14           -2.4438    -5.8878     2.1715 C.2     
  15 C15           -2.5253    -5.1051     3.4267 C.ar    
  16 O16           -2.9937    -6.9685     2.0926 O.2     
  17 C17            0.1896     2.5528    -0.2535 C.2     
  18 C18           -0.4077     3.8198    -0.2350 C.2     
  19 C19           -1.7479     3.6451    -0.1585 C.2     
  20 N20           -2.0153     2.3124    -0.1343 N.pl3   
  21 Cl21           0.4230     5.3429    -0.2982 Cl      
  22 C22           -3.7188    -5.0349     4.1527 C.ar    
  23 C23           -3.7558    -4.2945     5.3200 C.ar    
  24 N24           -2.6883    -3.6582     5.7541 N.ar    
  25 C25           -1.5351    -3.6952     5.1002 C.ar    
  26 C26           -1.4110    -4.4224     3.9194 C.ar    
  27 C27           -0.3636    -2.9588     5.6355 C.ar    
  28 C28           -0.4761    -2.2320     6.8200 C.ar    
  29 N29            0.5693    -1.5783     7.2922 N.ar    
  30 C30            1.7205    -1.6125     6.6437 C.ar    
  31 C31            1.8362    -2.3334     5.4667 C.ar    
  32 N32            0.7981    -2.9944     4.9901 N.ar    
  33 H33           -2.7698    -3.1447    -0.0221 H       
  34 H34           -1.6670    -3.5152    -2.2228 H       
  35 H35           -0.2626    -4.2230    -1.3897 H       
  36 H36           -3.1240    -5.2754    -1.2345 H       
  37 H37           -1.8170    -5.9823    -2.2155 H       
  38 H38           -2.1311    -7.1430    -0.0005 H       
  39 H39           -0.1103    -4.0976     1.1379 H       
  40 H40           -1.5310    -3.5333     2.0546 H       
  41 H41            0.4939    -5.6160    -0.3276 H       
  42 H42            0.2704    -7.1057     0.6206 H       
  43 H43            0.0734    -7.1386    -1.1481 H       
  44 H44            1.2476     2.3431    -0.3092 H       
  45 H45           -2.4841     4.4347    -0.1268 H       
  46 H46           -2.8979     1.9133    -0.0823 H       
  47 H47           -4.6009    -5.5524     3.8056 H       
  48 H48           -4.6749    -4.2372     5.8843 H       
  49 H49           -0.4707    -4.4514     3.3889 H       
  50 H50           -1.4166    -2.2035     7.3500 H       
  51 H51            2.5736    -1.0764     7.0326 H       
  52 H52            2.7790    -2.3583     4.9404 H       
@<TRIPOS>BOND
   1    1    2 1
   2    1   17 2
   3    1   20 1
   4    2    3 2
   5    2    6 1
   6    3    4 1
   7    4    5 2
   8    4    7 1
   9    5    6 1
  10    7    8 1
  11    7   12 1
  12    7   33 1
  13    8    9 1
  14    8   34 1
  15    8   35 1
  16    9   10 1
  17    9   36 1
  18    9   37 1
  19   10   11 1
  20   10   13 1
  21   10   38 1
  22   11   12 1
  23   11   14 am
  24   12   39 1
  25   12   40 1
  26   13   41 1
  27   13   42 1
  28   13   43 1
  29   14   15 1
  30   14   16 2
  31   15   22 ar
  32   15   26 ar
  33   17   18 1
  34   17   44 1
  35   18   19 2
  36   18   21 1
  37   19   20 1
  38   19   45 1
  39   20   46 1
  40   22   23 ar
  41   22   47 1
  42   23   24 ar
  43   23   48 1
  44   24   25 ar
  45   25   26 ar
  46   25   27 1
  47   26   49 1
  48   27   28 ar
  49   27   32 ar
  50   28   29 ar
  51   28   50 1
  52   29   30 ar
  53   30   31 ar
  54   30   51 1
  55   31   32 ar
  56   31   52 1

#	End of record

