#	Name: ASD03331780
#	Creating user name:	WinNT
#	Creation time:	15. 06. 2019 20:39

#	Modifying user name:	WinNT
#	Modification time:	15. 06. 2019 20:39

#	Program:	/corina/corina34_cracker 3.40 0067  02.08.2006

@<TRIPOS>MOLECULE
ASD03331780
  57   59    0    0    0
SMALL
NO_CHARGES


@<TRIPOS>ATOM
   1 C1            -1.2877     2.0925    -2.1082 C.3     
   2 N2            -1.1231     0.7052    -1.6521 N.3     
   3 C3            -0.3355    -0.0834    -2.6169 C.3     
   4 C4             0.9155     0.6920    -2.9397 C.2     
   5 N5             1.0787     2.0166    -2.6546 N.pl3   
   6 C6             0.0506     2.8358    -2.0068 C.3     
   7 C7             2.0566     0.2673    -3.5365 C.2     
   8 N8             2.9004     1.3226    -3.6081 N.2     
   9 C9             2.3185     2.3758    -3.0790 C.2     
  10 C10            2.9132     3.7251    -2.9647 C.ar    
  11 C11            3.5652     4.2997    -4.0592 C.ar    
  12 C12            2.3289    -1.0979    -4.0196 C.2     
  13 O13            1.4857    -1.9658    -3.8971 O.2     
  14 N14            3.5124    -1.3849    -4.5971 N.am    
  15 C15           -2.4263     0.0767    -1.3977 C.3     
  16 C16            3.7831    -2.7422    -5.0773 C.3     
  17 C17            4.3062    -3.5973    -3.9215 C.3     
  18 C18            3.2178    -3.7340    -2.8550 C.3     
  19 C19            4.6852    -4.9844    -4.4442 C.3     
  20 C20            5.5388    -2.9286    -3.3095 C.3     
  21 C21            4.8174    -2.6906    -6.1722 C.2     
  22 N22            5.0056    -3.7588    -6.9722 N.am    
  23 O23            5.4803    -1.6879    -6.3335 O.2     
  24 C24            6.0626    -3.7372    -7.9864 C.3     
  25 C25            4.1183     5.5612    -3.9453 C.ar    
  26 C26            4.0276     6.2537    -2.7517 C.ar    
  27 C27            3.3829     5.6894    -1.6640 C.ar    
  28 C28            2.8209     4.4322    -1.7659 C.ar    
  29 Cl29           3.2754     6.5673    -0.1702 Cl      
  30 F30            3.6550     3.6236    -5.2254 F       
  31 H31           -1.6261     2.0954    -3.1444 H       
  32 H32           -2.0284     2.5934    -1.4849 H       
  33 H33           -0.0701    -1.0449    -2.1774 H       
  34 H34           -0.9164    -0.2406    -3.5256 H       
  35 H35           -0.0244     3.7989    -2.5117 H       
  36 H36            0.3082     2.9884    -0.9588 H       
  37 H37            4.1849    -0.6927    -4.6947 H       
  38 H38           -3.0408     0.1382    -2.2959 H       
  39 H39           -2.2789    -0.9694    -1.1293 H       
  40 H40           -2.9261     0.5948    -0.5793 H       
  41 H41            2.8638    -3.1801    -5.4662 H       
  42 H42            2.3397    -4.2104    -3.2910 H       
  43 H43            3.5904    -4.3433    -2.0315 H       
  44 H44            2.9478    -2.7458    -2.4826 H       
  45 H45            5.3638    -4.8807    -5.2909 H       
  46 H46            5.1764    -5.5495    -3.6520 H       
  47 H47            3.7855    -5.5113    -4.7620 H       
  48 H48            5.2688    -1.9404    -2.9371 H       
  49 H49            5.9114    -3.5378    -2.4860 H       
  50 H50            6.3142    -2.8312    -4.0693 H       
  51 H51            4.4413    -4.5420    -6.8764 H       
  52 H52            6.0624    -4.6811    -8.5315 H       
  53 H53            5.8830    -2.9166    -8.6809 H       
  54 H54            7.0288    -3.5979    -7.5014 H       
  55 H55            4.6225     6.0069    -4.7900 H       
  56 H56            4.4620     7.2389    -2.6674 H       
  57 H57            2.3184     3.9936    -0.9165 H       
@<TRIPOS>BOND
   1    1    2 1
   2    1    6 1
   3    1   31 1
   4    1   32 1
   5    2    3 1
   6    2   15 1
   7    3    4 1
   8    3   33 1
   9    3   34 1
  10    4    5 1
  11    4    7 2
  12    5    6 1
  13    5    9 1
  14    6   35 1
  15    6   36 1
  16    7    8 1
  17    7   12 1
  18    8    9 2
  19    9   10 1
  20   10   11 ar
  21   10   28 ar
  22   11   25 ar
  23   11   30 1
  24   12   13 2
  25   12   14 am
  26   14   16 1
  27   14   37 1
  28   15   38 1
  29   15   39 1
  30   15   40 1
  31   16   17 1
  32   16   21 1
  33   16   41 1
  34   17   18 1
  35   17   19 1
  36   17   20 1
  37   18   42 1
  38   18   43 1
  39   18   44 1
  40   19   45 1
  41   19   46 1
  42   19   47 1
  43   20   48 1
  44   20   49 1
  45   20   50 1
  46   21   22 am
  47   21   23 2
  48   22   24 1
  49   22   51 1
  50   24   52 1
  51   24   53 1
  52   24   54 1
  53   25   26 ar
  54   25   55 1
  55   26   27 ar
  56   26   56 1
  57   27   28 ar
  58   27   29 1
  59   28   57 1

#	End of record

