#	Name: ASD00843992
#	Creating user name:	WinNT
#	Creation time:	15. 06. 2019 18:48

#	Modifying user name:	WinNT
#	Modification time:	15. 06. 2019 18:48

#	Program:	/corina/corina34_cracker 3.40 0067  02.08.2006

@<TRIPOS>MOLECULE
ASD00843992
  92   97    0    0    0
SMALL
NO_CHARGES


@<TRIPOS>ATOM
   1 F1            -0.0973    -3.1246     4.7250 F       
   2 N2            -0.0159     1.3183     0.0093 N.ar    
   3 C3             0.0021    -0.0041     0.0020 C.ar    
   4 C4             1.2069    -0.6955    -0.0132 C.ar    
   5 C5             2.3925     0.0180    -0.0207 C.ar    
   6 C6             2.3308     1.4049    -0.0127 C.ar    
   7 C7             1.0980     2.0259     0.0025 C.ar    
   8 C8             1.2224    -2.2024    -0.0209 C.3     
   9 C9             0.4764    -2.7341    -1.2259 C.2     
  10 O10            2.5880    -2.6957    -0.0100 O.3     
  11 C11            3.3812    -2.3219    -1.0317 C.2     
  12 N12            4.6598    -2.7450    -1.0818 N.am    
  13 O13            2.9442    -1.6031    -1.9086 O.2     
  14 C14            5.5375    -2.3455    -2.1904 C.3     
  15 C15            6.1419    -3.6050    -2.8192 C.3     
  16 C16            6.8366    -4.4295    -1.7331 C.3     
  17 C17            5.8108    -4.8591    -0.6818 C.3     
  18 C18            5.2043    -3.6094    -0.0259 C.3     
  19 N19            7.4459    -5.6214    -2.3382 N.3     
  20 C20            8.2232    -6.3769    -1.3459 C.3     
  21 C21            8.7740    -7.6491    -1.9943 C.3     
  22 N22            9.6092    -7.2858    -3.1477 N.3     
  23 C23            8.8318    -6.5304    -4.1400 C.3     
  24 C24            8.2810    -5.2582    -3.4915 C.3     
  25 C25           10.2184    -8.4778    -3.7527 C.3     
  26 O26            0.7566    -2.5392    -2.3898 O.2     
  27 N27           -0.5539    -3.4627    -0.7649 N.am    
  28 C28            0.4505    -2.7460     1.1600 C.ar    
  29 C29           -0.5988    -3.4907     0.6311 C.ar    
  30 C30            0.6193    -2.6223     2.5215 C.ar    
  31 C31           -0.2615    -3.2439     3.3894 C.ar    
  32 C32           -1.3224    -3.9967     2.8756 C.ar    
  33 C33           -1.4874    -4.1183     1.4962 C.ar    
  34 C34           -1.0160    -5.8566    -2.0415 C.ar    
  35 C35           -1.3466    -6.8956    -1.1912 C.ar    
  36 C36           -0.1972    -6.0864    -3.1318 C.ar    
  37 C37            0.2926    -7.3551    -3.3740 C.ar    
  38 C38           -0.0376    -8.3992    -2.5223 C.ar    
  39 C39           -0.8590    -8.1660    -1.4288 C.ar    
  40 O40            0.4426    -9.6484    -2.7587 O.3     
  41 H41           -1.9864    -6.7136    -0.3403 H       
  42 C42            0.0613   -10.6746    -1.8403 C.3     
  43 C43           10.9764    -8.0758    -5.0195 C.3     
  44 C44           11.1902    -9.1148    -2.7574 C.3     
  45 C45           -2.2386    -4.6434     3.7661 C.1     
  46 N46           -2.9655    -5.1564     4.4724 N.1     
  47 S47           -1.6450    -4.2387    -1.7395 S.o2    
  48 O48           -2.8259    -4.4051    -0.9668 O.2     
  49 O49           -1.6221    -3.5598    -2.9876 O.2     
  50 O50           -1.1673    -0.6919     0.0099 O.3     
  51 C51           -2.3720     0.0766     0.0260 C.3     
  52 C52           -3.5777    -0.8652     0.0330 C.3     
  53 F53           -3.5507    -1.6659    -1.1140 F       
  54 F54           -3.5280    -1.6782     1.1704 F       
  55 H55            3.3442    -0.4925    -0.0322 H       
  56 H56            3.2375     1.9916    -0.0178 H       
  57 H57            1.0444     3.1046     0.0084 H       
  58 H58            4.9579    -1.8054    -2.9390 H       
  59 H59            6.3358    -1.7067    -1.8124 H       
  60 H60            5.3505    -4.1989    -3.2765 H       
  61 H61            6.8686    -3.3191    -3.5797 H       
  62 H62            7.6114    -3.8267    -1.2594 H       
  63 H63            5.0225    -5.4412    -1.1593 H       
  64 H64            6.3018    -5.4659     0.0789 H       
  65 H65            5.9769    -3.0761     0.5281 H       
  66 H66            4.4035    -3.9046     0.6521 H       
  67 H67            9.0503    -5.7635    -0.9883 H       
  68 H68            7.5801    -6.6451    -0.5077 H       
  69 H69            9.3751    -8.1965    -1.2682 H       
  70 H70            7.9463    -8.2751    -2.3275 H       
  71 H71            9.4749    -6.2622    -4.9782 H       
  72 H72            8.0047    -7.1437    -4.4975 H       
  73 H73            7.6800    -4.7108    -4.2176 H       
  74 H74            9.1087    -4.6321    -3.1583 H       
  75 H75            9.4381    -9.1947    -4.0083 H       
  76 H76            1.4404    -2.0397     2.9122 H       
  77 H77           -2.3067    -4.6997     1.0998 H       
  78 H78            0.0594    -5.2733    -3.7947 H       
  79 H79            0.9319    -7.5342    -4.2259 H       
  80 H80           -1.1178    -8.9773    -0.7645 H       
  81 H81            0.4056   -10.4130    -0.8397 H       
  82 H82           -1.0242   -10.7740    -1.8366 H       
  83 H83            0.5116   -11.6196    -2.1439 H       
  84 H84           11.7567    -7.3589    -4.7640 H       
  85 H85           11.4285    -8.9602    -5.4685 H       
  86 H86           10.2841    -7.6220    -5.7286 H       
  87 H87           10.6502    -9.4012    -1.8549 H       
  88 H88           11.6423    -9.9992    -3.2064 H       
  89 H89           11.9705    -8.3979    -2.5019 H       
  90 H90           -2.3931     0.7004     0.9196 H       
  91 H91           -2.4108     0.7099    -0.8602 H       
  92 H92           -4.4966    -0.2790     0.0452 H       
@<TRIPOS>BOND
   1    1   31 1
   2    2    3 ar
   3    2    7 ar
   4    3    4 ar
   5    3   50 1
   6    4    5 ar
   7    4    8 1
   8    5    6 ar
   9    5   55 1
  10    6    7 ar
  11    6   56 1
  12    7   57 1
  13    8    9 1
  14    8   10 1
  15    8   28 1
  16    9   26 2
  17    9   27 am
  18   10   11 1
  19   11   12 am
  20   11   13 2
  21   12   14 1
  22   12   18 1
  23   14   15 1
  24   14   58 1
  25   14   59 1
  26   15   16 1
  27   15   60 1
  28   15   61 1
  29   16   17 1
  30   16   19 1
  31   16   62 1
  32   17   18 1
  33   17   63 1
  34   17   64 1
  35   18   65 1
  36   18   66 1
  37   19   20 1
  38   19   24 1
  39   20   21 1
  40   20   67 1
  41   20   68 1
  42   21   22 1
  43   21   69 1
  44   21   70 1
  45   22   23 1
  46   22   25 1
  47   23   24 1
  48   23   71 1
  49   23   72 1
  50   24   73 1
  51   24   74 1
  52   25   43 1
  53   25   44 1
  54   25   75 1
  55   27   47 am
  56   27   29 1
  57   28   29 ar
  58   28   30 ar
  59   29   33 ar
  60   30   31 ar
  61   30   76 1
  62   31   32 ar
  63   32   33 ar
  64   32   45 1
  65   33   77 1
  66   34   35 ar
  67   34   36 ar
  68   34   47 1
  69   35   41 1
  70   35   39 ar
  71   36   37 ar
  72   36   78 1
  73   37   38 ar
  74   37   79 1
  75   38   39 ar
  76   38   40 1
  77   39   80 1
  78   40   42 1
  79   42   81 1
  80   42   82 1
  81   42   83 1
  82   43   84 1
  83   43   85 1
  84   43   86 1
  85   44   87 1
  86   44   88 1
  87   44   89 1
  88   45   46 3
  89   47   48 2
  90   47   49 2
  91   50   51 1
  92   51   52 1
  93   51   90 1
  94   51   91 1
  95   52   53 1
  96   52   54 1
  97   52   92 1

#	End of record

