#	Name: ASD01948031
#	Creating user name:	WinNT
#	Creation time:	15. 06. 2019 20:13

#	Modifying user name:	WinNT
#	Modification time:	15. 06. 2019 20:13

#	Program:	/corina/corina34_cracker 3.40 0067  02.08.2006

@<TRIPOS>MOLECULE
ASD01948031
  50   52    0    0    0
SMALL
NO_CHARGES


@<TRIPOS>ATOM
   1 C1             0.5680     0.1429    -3.0154 C.2     
   2 C2            -0.1077    -0.3008    -1.9041 C.2     
   3 C3             0.4350    -0.1053    -0.6237 C.2     
   4 C4             1.6594     0.5401    -0.5023 C.2     
   5 C5             2.3119     0.9738    -1.6528 C.2     
   6 N6             1.7681     0.7737    -2.8720 N.am    
   7 N7             0.1923     0.0345    -4.3475 N.am    
   8 C8             1.2220     0.6504    -5.1906 C.3     
   9 C9             2.2851     1.1486    -4.1989 C.3     
  10 C10           -0.9391    -0.5454    -4.7949 C.2     
  11 O11           -1.7723    -0.9416    -4.0043 O.2     
  12 O12           -1.1460    -0.6857    -6.1179 O.3     
  13 O13            3.3894     1.5431    -1.5579 O.2     
  14 C14            2.2719     0.7678     0.8557 C.3     
  15 N15           -0.2412    -0.5493     0.5025 N.pl3   
  16 C16           -1.5303    -0.0785     0.7756 C.ar    
  17 C17           -2.2448    -0.5888     1.8548 C.ar    
  18 C18           -3.5181    -0.1211     2.1212 C.ar    
  19 C19           -4.0811     0.8531     1.3152 C.ar    
  20 C20           -3.3724     1.3613     0.2416 C.ar    
  21 C21           -2.0967     0.9028    -0.0262 C.ar    
  22 F22           -1.6953    -1.5403     2.6408 F       
  23 Br23          -5.8233     1.4902     1.6822 Br      
  24 N24           -1.3480    -0.9529    -2.0495 N.pl3   
  25 C25           -2.3865    -1.3193    -6.5276 C.3     
  26 C26           -3.5718    -0.5017    -6.0105 C.3     
  27 C27           -2.4430    -1.3898    -8.0549 C.3     
  28 C28           -2.4518    -2.7342    -5.9490 C.3     
  29 H29            1.6527    -0.0888    -5.8661 H       
  30 H30            0.8035     1.4840    -5.7545 H       
  31 H31            2.3963     2.2305    -4.2708 H       
  32 H32            3.2384     0.6550    -4.3879 H       
  33 H33            2.8322    -0.1181     1.1547 H       
  34 H34            2.9437     1.6250     0.8121 H       
  35 H35            1.4829     0.9611     1.5824 H       
  36 H36            0.1794    -1.1863     1.1010 H       
  37 H37           -4.0740    -0.5163     2.9586 H       
  38 H38           -3.8151     2.1208    -0.3857 H       
  39 H39           -1.5426     1.3039    -0.8620 H       
  40 H40           -2.1675    -0.4350    -2.0815 H       
  41 H41           -1.3825    -1.9199    -2.1177 H       
  42 H42           -3.5253     0.5063    -6.4228 H       
  43 H43           -4.5031    -0.9774    -6.3181 H       
  44 H44           -3.5316    -0.4515    -4.9225 H       
  45 H45           -1.5986    -1.9724    -8.4232 H       
  46 H46           -3.3743    -1.8655    -8.3624 H       
  47 H47           -2.3965    -0.3819    -8.4671 H       
  48 H48           -2.4115    -2.6840    -4.8609 H       
  49 H49           -3.3831    -3.2099    -6.2565 H       
  50 H50           -1.6074    -3.3167    -6.3173 H       
@<TRIPOS>BOND
   1    1    2 2
   2    1    6 1
   3    1    7 1
   4    2    3 1
   5    2   24 1
   6    3    4 2
   7    3   15 1
   8    4    5 1
   9    4   14 1
  10    5    6 am
  11    5   13 2
  12    6    9 1
  13    7    8 1
  14    7   10 am
  15    8    9 1
  16    8   29 1
  17    8   30 1
  18    9   31 1
  19    9   32 1
  20   10   11 2
  21   10   12 1
  22   12   25 1
  23   14   33 1
  24   14   34 1
  25   14   35 1
  26   15   16 1
  27   15   36 1
  28   16   17 ar
  29   16   21 ar
  30   17   18 ar
  31   17   22 1
  32   18   19 ar
  33   18   37 1
  34   19   20 ar
  35   19   23 1
  36   20   21 ar
  37   20   38 1
  38   21   39 1
  39   24   40 1
  40   24   41 1
  41   25   26 1
  42   25   28 1
  43   25   27 1
  44   26   42 1
  45   26   43 1
  46   26   44 1
  47   27   45 1
  48   27   46 1
  49   27   47 1
  50   28   48 1
  51   28   49 1
  52   28   50 1

#	End of record

