#	Name: ASD03540267
#	Creating user name:	WinNT
#	Creation time:	15. 06. 2019 20:42

#	Modifying user name:	WinNT
#	Modification time:	15. 06. 2019 20:42

#	Program:	/corina/corina34_cracker 3.40 0067  02.08.2006

@<TRIPOS>MOLECULE
ASD03540267
  58   61    0    0    0
SMALL
NO_CHARGES


@<TRIPOS>ATOM
   1 C1            -0.0161     1.3365     0.0094 C.2     
   2 N2             0.0021    -0.0041     0.0020 N.am    
   3 C3             1.1934    -0.7075    -0.0132 C.2     
   4 C4             2.3927    -0.0052    -0.0209 C.2     
   5 C5             2.3194     1.4731    -0.0123 C.2     
   6 N6             1.1112     2.0659     0.0025 N.am    
   7 C7             3.5132    -0.8389    -0.0357 C.2     
   8 C8             3.2261    -2.1513    -0.0396 C.2     
   9 S9             1.4880    -2.3901    -0.0245 S.3     
  10 C10            4.2202    -3.2270    -0.0552 C.2     
  11 O11            5.4074    -2.9586    -0.0657 O.2     
  12 N12            3.8203    -4.5141    -0.0579 N.am    
  13 C13            4.8145    -5.5900    -0.0735 C.3     
  14 C14            4.1120    -6.9232    -0.0734 C.ar    
  15 C15            3.7782    -7.5276    -1.2713 C.ar    
  16 C16            3.1342    -8.7497    -1.2739 C.ar    
  17 C17            2.8223    -9.3706    -0.0732 C.ar    
  18 C18            3.1583    -8.7622     1.1275 C.ar    
  19 C19            3.8073    -7.5427     1.1246 C.ar    
  20 O20            2.1884   -10.5727    -0.0731 O.3     
  21 C21            1.8987   -11.1533     1.2001 C.3     
  22 O22            3.3359     2.1421    -0.0183 O.2     
  23 O23           -1.0880     1.9102     0.0175 O.2     
  24 C24           -1.2652    -0.7390     0.0107 C.3     
  25 C25            1.0247     3.5284     0.0113 C.3     
  26 C26            1.0086     4.0221     1.4350 C.ar    
  27 C27            2.1988     4.3187     2.0747 C.ar    
  28 C28            2.1906     4.7712     3.3783 C.ar    
  29 C29            0.9792     4.9293     4.0508 C.ar    
  30 C30           -0.2174     4.6287     3.4006 C.ar    
  31 C31           -0.1965     4.1824     2.0950 C.ar    
  32 C32            0.9634     5.4141     5.4500 C.2     
  33 N33           -0.2350     5.5693     6.1119 N.pl3   
  34 N34            2.0824     5.6937     6.0549 N.2     
  35 O35           -0.2501     6.0328     7.4498 O.3     
  36 H36            4.5248    -0.4605    -0.0436 H       
  37 H37            2.8742    -4.7281    -0.0495 H       
  38 H38            5.4295    -5.5035    -0.9692 H       
  39 H39            5.4474    -5.5127     0.8106 H       
  40 H40            4.0209    -7.0436    -2.2058 H       
  41 H41            2.8734    -9.2212    -2.2099 H       
  42 H42            2.9165    -9.2436     2.0636 H       
  43 H43            4.0733    -7.0709     2.0590 H       
  44 H44            1.2538   -10.4821     1.7673 H       
  45 H45            1.3932   -12.1084     1.0574 H       
  46 H46            2.8282   -11.3123     1.7469 H       
  47 H47           -2.0950    -0.0323     0.0228 H       
  48 H48           -1.3306    -1.3610    -0.8820 H       
  49 H49           -1.3129    -1.3705     0.8978 H       
  50 H50            1.8867     3.9464    -0.5086 H       
  51 H51            0.1099     3.8413    -0.4921 H       
  52 H52            3.1364     4.1955     1.5530 H       
  53 H53            3.1204     5.0021     3.8768 H       
  54 H54           -1.1586     4.7492     3.9163 H       
  55 H55           -1.1228     3.9537     1.5888 H       
  56 H56           -1.0684     5.3611     5.6613 H       
  57 H57            2.0721     6.0112     6.9714 H       
  58 H58           -1.1361     6.1096     7.8295 H       
@<TRIPOS>BOND
   1    1    2 am
   2    1    6 am
   3    1   23 2
   4    2    3 1
   5    2   24 1
   6    3    4 2
   7    3    9 1
   8    4    5 1
   9    4    7 1
  10    5    6 am
  11    5   22 2
  12    6   25 1
  13    7    8 2
  14    7   36 1
  15    8    9 1
  16    8   10 1
  17   10   11 2
  18   10   12 am
  19   12   13 1
  20   12   37 1
  21   13   14 1
  22   13   38 1
  23   13   39 1
  24   14   15 ar
  25   14   19 ar
  26   15   16 ar
  27   15   40 1
  28   16   17 ar
  29   16   41 1
  30   17   18 ar
  31   17   20 1
  32   18   19 ar
  33   18   42 1
  34   19   43 1
  35   20   21 1
  36   21   44 1
  37   21   45 1
  38   21   46 1
  39   24   47 1
  40   24   48 1
  41   24   49 1
  42   25   26 1
  43   25   50 1
  44   25   51 1
  45   26   27 ar
  46   26   31 ar
  47   27   28 ar
  48   27   52 1
  49   28   29 ar
  50   28   53 1
  51   29   30 ar
  52   29   32 1
  53   30   31 ar
  54   30   54 1
  55   31   55 1
  56   32   33 1
  57   32   34 2
  58   33   35 1
  59   33   56 1
  60   34   57 1
  61   35   58 1

#	End of record

