#	Name: ASD03930134
#	Creating user name:	WinNT
#	Creation time:	15. 06. 2019 20:47

#	Modifying user name:	WinNT
#	Modification time:	15. 06. 2019 20:47

#	Program:	/corina/corina34_cracker 3.40 0067  02.08.2006

@<TRIPOS>MOLECULE
ASD03930134
  33   34    0    0    0
SMALL
NO_CHARGES


@<TRIPOS>ATOM
   1 C1             0.5631    -0.4236    -1.2839 C.3     
   2 C2            -0.1535     0.0832    -0.0307 C.3     
   3 C3            -0.2775     1.6068    -0.0952 C.3     
   4 S4            -1.8081    -0.6548     0.0600 S.o2    
   5 O5            -2.3804    -0.4399     1.3427 O.2     
   6 O6            -2.5423    -0.3799    -1.1252 O.2     
   7 N7            -1.5360    -2.2873     0.0025 N.am    
   8 C8             0.0671    -4.0926     0.5563 C.3     
   9 C9            -0.8189    -2.9493     1.0950 C.3     
  10 C10           -1.8003    -3.6989     2.0208 C.3     
  11 C11           -1.0583    -4.9426     2.4609 C.ar    
  12 C12           -1.3032    -5.8081     3.5139 C.ar    
  13 C13           -0.4782    -6.8963     3.7258 C.ar    
  14 C14            0.5956    -7.1224     2.8834 C.ar    
  15 C15            0.8405    -6.2602     1.8329 C.ar    
  16 C16            0.0147    -5.1689     1.6194 C.ar    
  17 Br17          -0.8163    -8.0744     5.1658 Br      
  18 H18            1.5573     0.0199    -1.3384 H       
  19 H19            0.6515    -1.5091    -1.2380 H       
  20 H20           -0.0090    -0.1427    -2.1682 H       
  21 H21            0.4186    -0.1976     0.8536 H       
  22 H22           -0.8636     1.9599     0.7533 H       
  23 H23            0.7160     2.0540    -0.0617 H       
  24 H24           -0.7732     1.8921    -1.0231 H       
  25 H25           -1.8516    -2.8052    -0.7546 H       
  26 H26           -0.3335    -4.4704    -0.3844 H       
  27 H27            1.0912    -3.7453     0.4199 H       
  28 H28           -0.2242    -2.2318     1.6604 H       
  29 H29           -2.0513    -3.0827     2.8842 H       
  30 H30           -2.7032    -3.9708     1.4740 H       
  31 H31           -2.1414    -5.6318     4.1717 H       
  32 H32            1.2419    -7.9720     3.0474 H       
  33 H33            1.6792    -6.4371     1.1759 H       
@<TRIPOS>BOND
   1    1    2 1
   2    1   18 1
   3    1   19 1
   4    1   20 1
   5    2    3 1
   6    2    4 1
   7    2   21 1
   8    3   22 1
   9    3   23 1
  10    3   24 1
  11    4    5 2
  12    4    6 2
  13    4    7 am
  14    7    9 1
  15    7   25 1
  16    8    9 1
  17    8   16 1
  18    8   26 1
  19    8   27 1
  20    9   10 1
  21    9   28 1
  22   10   11 1
  23   10   29 1
  24   10   30 1
  25   11   12 ar
  26   11   16 ar
  27   12   13 ar
  28   12   31 1
  29   13   14 ar
  30   13   17 1
  31   14   15 ar
  32   14   32 1
  33   15   16 ar
  34   15   33 1

#	End of record

