#	Name: ASD00890012
#	Creating user name:	WinNT
#	Creation time:	15. 06. 2019 18:53

#	Modifying user name:	WinNT
#	Modification time:	15. 06. 2019 18:53

#	Program:	/corina/corina34_cracker 3.40 0067  02.08.2006

@<TRIPOS>MOLECULE
ASD00890012
  65   69    0    0    0
SMALL
NO_CHARGES


@<TRIPOS>ATOM
   1 C1            -0.0168     1.3906     0.0097 C.ar    
   2 C2             0.0021    -0.0041     0.0020 C.ar    
   3 C3             1.2144    -0.6736    -0.0132 C.ar    
   4 C4             2.4173     0.0620    -0.0208 C.ar    
   5 C5             2.3808     1.4642    -0.0126 C.ar    
   6 C6             1.1855     2.1143     0.0021 C.ar    
   7 N7             1.5533    -2.0123    -0.0244 N.pl3   
   8 C8             2.9231    -2.1215    -0.0386 C.2     
   9 C9             3.4732    -0.8800    -0.0368 C.2     
  10 C10            4.9463    -0.5620    -0.0495 C.3     
  11 C11            5.2801     0.2585    -1.2970 C.3     
  12 C12            6.7756     0.5813    -1.3099 C.3     
  13 C13            7.1344     1.3861    -0.0591 C.3     
  14 C14            6.8006     0.5656     1.1884 C.3     
  15 C15            5.3051     0.2428     1.2013 C.3     
  16 C16            3.6795    -3.3918    -0.0531 C.2     
  17 C17            3.4299    -4.5820     0.7703 C.2     
  18 C18            4.3610    -5.4814     0.4133 C.2     
  19 O19            5.1416    -4.9495    -0.5396 O.3     
  20 C20            4.7480    -3.7032    -0.8365 C.2     
  21 C21           -1.3043     2.1070     0.0197 C.2     
  22 O22           -2.3470     1.4827     0.0212 O.2     
  23 O23           -1.3257     3.4546     0.0271 O.3     
  24 C24            0.6083    -3.1318    -0.0216 C.3     
  25 C25            0.2706    -3.5077    -1.4414 C.2     
  26 O26            0.7702    -2.9003    -2.3646 O.2     
  27 N27           -0.5865    -4.5188    -1.6851 N.am    
  28 C28           -0.9255    -4.8969    -3.0638 C.3     
  29 C29           -2.4498    -4.8904    -3.2163 C.3     
  30 C30           -3.0693    -5.7927    -2.1467 C.3     
  31 C31           -2.7206    -5.2535    -0.7575 C.3     
  32 C32           -1.1950    -5.2678    -0.5772 C.3     
  33 C33           -4.5667    -5.8155    -2.3150 C.2     
  34 O34           -5.0851    -5.1760    -3.1994 O.2     
  35 O35           -5.3246    -6.5464    -1.4823 O.3     
  36 H36           -0.9243    -0.5593     0.0083 H       
  37 H37            3.3019     2.0282    -0.0181 H       
  38 H38            1.1619     3.1940     0.0078 H       
  39 H39            5.5182    -1.4898    -0.0610 H       
  40 H40            5.0245    -0.3149    -2.1881 H       
  41 H41            4.7082     1.1863    -1.2854 H       
  42 H42            7.3476    -0.3465    -1.3214 H       
  43 H43            7.0135     1.1658    -2.1986 H       
  44 H44            8.1998     1.6161    -0.0683 H       
  45 H45            6.5625     2.3139    -0.0475 H       
  46 H46            7.3725    -0.3622     1.1769 H       
  47 H47            7.0562     1.1390     2.0795 H       
  48 H48            4.7331     1.1706     1.2129 H       
  49 H49            5.0672    -0.3417     2.0901 H       
  50 H50            2.6552    -4.7081     1.5122 H       
  51 H51            4.4653    -6.4735     0.8273 H       
  52 H52            5.2030    -3.0551    -1.5709 H       
  53 H53           -2.1942     3.8798     0.0335 H       
  54 H54            1.0588    -3.9863     0.4832 H       
  55 H55           -0.3012    -2.8381     0.5026 H       
  56 H56           -0.4857    -4.1806    -3.7578 H       
  57 H57           -0.5415    -5.8952    -3.2738 H       
  58 H58           -2.8231    -3.8735    -3.0953 H       
  59 H59           -2.7180    -5.2616    -4.2054 H       
  60 H60           -2.6767    -6.8040    -2.2528 H       
  61 H61           -3.0914    -4.2332    -0.6596 H       
  62 H62           -3.1816    -5.8832     0.0035 H       
  63 H63           -0.8326    -6.2957    -0.5885 H       
  64 H64           -0.9332    -4.7963     0.3700 H       
  65 H65           -6.2802    -6.5296    -1.6297 H       
@<TRIPOS>BOND
   1    1    2 ar
   2    1    6 ar
   3    1   21 1
   4    2    3 ar
   5    2   36 1
   6    3    4 ar
   7    3    7 1
   8    4    5 ar
   9    4    9 1
  10    5    6 ar
  11    5   37 1
  12    6   38 1
  13    7    8 1
  14    7   24 1
  15    8    9 2
  16    8   16 1
  17    9   10 1
  18   10   11 1
  19   10   15 1
  20   10   39 1
  21   11   12 1
  22   11   40 1
  23   11   41 1
  24   12   13 1
  25   12   42 1
  26   12   43 1
  27   13   14 1
  28   13   44 1
  29   13   45 1
  30   14   15 1
  31   14   46 1
  32   14   47 1
  33   15   48 1
  34   15   49 1
  35   16   17 1
  36   16   20 2
  37   17   18 2
  38   17   50 1
  39   18   19 1
  40   18   51 1
  41   19   20 1
  42   20   52 1
  43   21   22 2
  44   21   23 1
  45   23   53 1
  46   24   25 1
  47   24   54 1
  48   24   55 1
  49   25   26 2
  50   25   27 am
  51   27   28 1
  52   27   32 1
  53   28   29 1
  54   28   56 1
  55   28   57 1
  56   29   30 1
  57   29   58 1
  58   29   59 1
  59   30   31 1
  60   30   33 1
  61   30   60 1
  62   31   32 1
  63   31   61 1
  64   31   62 1
  65   32   63 1
  66   32   64 1
  67   33   34 2
  68   33   35 1
  69   35   65 1

#	End of record

