#	Name: ASD05313148
#	Creating user name:	WinNT
#	Creation time:	15. 06. 2019 20:58

#	Modifying user name:	WinNT
#	Modification time:	15. 06. 2019 20:58

#	Program:	/corina/corina34_cracker 3.40 0067  02.08.2006

@<TRIPOS>MOLECULE
ASD05313148
  43   46    0    0    0
SMALL
NO_CHARGES


@<TRIPOS>ATOM
   1 C1            -0.0461     0.8367     0.9978 C.2     
   2 C2             0.1273    -0.6047     0.5822 C.3     
   3 N3             0.9652     1.7402     1.0205 N.pl3   
   4 N4             1.4714    -0.7221    -0.0140 N.am    
   5 C5             2.5901    -0.0462     0.6606 C.3     
   6 C6             2.3506     1.4682     0.6413 C.3     
   7 N7            -0.8623     2.6731     1.6648 N.2     
   8 N8            -1.1265     1.4414     1.3920 N.2     
   9 C9             0.4168     2.9088     1.4540 C.2     
  10 C10            1.1216     4.1938     1.6532 C.ar    
  11 C11            0.4217     5.3143     2.1057 C.ar    
  12 N12            2.4261     4.2851     1.4070 N.ar    
  13 N13            1.0560     6.4578     2.2820 N.ar    
  14 C14            2.3515     6.5434     2.0308 C.ar    
  15 C15            3.0506     5.4340     1.5867 C.ar    
  16 C16            1.6689    -1.4289    -1.1444 C.2     
  17 O17            2.7628    -1.4343    -1.6746 O.2     
  18 C18            0.5552    -2.1977    -1.7397 C.ar    
  19 C19            0.3185    -2.1387    -3.1141 C.ar    
  20 C20           -0.7220    -2.8588    -3.6632 C.ar    
  21 C21           -1.5306    -3.6381    -2.8546 C.ar    
  22 C22           -1.3015    -3.7009    -1.4918 C.ar    
  23 C23           -0.2605    -2.9901    -0.9307 C.ar    
  24 C24           -2.6662    -4.4214    -3.4613 C.3     
  25 C25            1.1975    -1.2898    -3.9961 C.3     
  26 H26            0.0486    -1.2551     1.4534 H       
  27 H27           -0.6308    -0.8735    -0.1535 H       
  28 H28            2.6550    -0.3913     1.6925 H       
  29 H29            3.5204    -0.2743     0.1404 H       
  30 H30            2.5360     1.8534    -0.3614 H       
  31 H31            3.0237     1.9526     1.3487 H       
  32 H32           -0.6364     5.2451     2.3107 H       
  33 H33            2.8668     7.4814     2.1760 H       
  34 H34            4.1094     5.5086     1.3875 H       
  35 H35           -0.9062    -2.8141    -4.7264 H       
  36 H36           -1.9362    -4.3110    -0.8663 H       
  37 H37           -0.0801    -3.0432     0.1328 H       
  38 H38           -2.3115    -5.4106    -3.7505 H       
  39 H39           -3.4689    -4.5224    -2.7309 H       
  40 H40           -3.0395    -3.8976    -4.3413 H       
  41 H41            2.0878    -1.8544    -4.2730 H       
  42 H42            0.6489    -1.0118    -4.8960 H       
  43 H43            1.4914    -0.3892    -3.4570 H       
@<TRIPOS>BOND
   1    1    2 1
   2    1    3 1
   3    1    8 2
   4    2    4 1
   5    2   26 1
   6    2   27 1
   7    3    6 1
   8    3    9 1
   9    4    5 1
  10    4   16 am
  11    5    6 1
  12    5   28 1
  13    5   29 1
  14    6   30 1
  15    6   31 1
  16    7    8 1
  17    7    9 2
  18    9   10 1
  19   10   11 ar
  20   10   12 ar
  21   11   13 ar
  22   11   32 1
  23   12   15 ar
  24   13   14 ar
  25   14   15 ar
  26   14   33 1
  27   15   34 1
  28   16   17 2
  29   16   18 1
  30   18   19 ar
  31   18   23 ar
  32   19   20 ar
  33   19   25 1
  34   20   21 ar
  35   20   35 1
  36   21   22 ar
  37   21   24 1
  38   22   23 ar
  39   22   36 1
  40   23   37 1
  41   24   38 1
  42   24   39 1
  43   24   40 1
  44   25   41 1
  45   25   42 1
  46   25   43 1

#	End of record

