#	Name: ASD01881501
#	Creating user name:	WinNT
#	Creation time:	15. 06. 2019 19:42

#	Modifying user name:	WinNT
#	Modification time:	15. 06. 2019 19:42

#	Program:	/corina/corina34_cracker 3.40 0067  02.08.2006

@<TRIPOS>MOLECULE
ASD01881501
  69   73    0    0    0
SMALL
NO_CHARGES


@<TRIPOS>ATOM
   1 C1            -0.0167     1.3792     0.0096 C.ar    
   2 C2             0.0021    -0.0041     0.0020 C.ar    
   3 C3             1.2087    -0.6842    -0.0132 C.ar    
   4 C4             2.3920     0.0166    -0.0208 C.ar    
   5 C5             2.3846     1.4137    -0.0132 C.ar    
   6 C6             1.1648     2.0919     0.0022 C.ar    
   7 C7             3.8409    -0.4021    -0.0369 C.3     
   8 N8             4.6266     0.8371    -0.0378 N.am    
   9 C9             3.7832     1.8837    -0.0241 C.2     
  10 C10            6.0892     0.9201    -0.0514 C.3     
  11 C11            6.5770     0.9561    -1.4768 C.ar    
  12 C12            6.7327     2.1688    -2.1225 C.ar    
  13 C13            7.1798     2.2046    -3.4291 C.ar    
  14 C14            7.4727     1.0224    -4.0934 C.ar    
  15 C15            7.3157    -0.1931    -3.4433 C.ar    
  16 C16            6.8736    -0.2232    -2.1348 C.ar    
  17 O17            4.1240     3.0505    -0.0207 O.2     
  18 C18            1.1382     3.5987     0.0100 C.3     
  19 C19           -3.1234    -1.6962    -1.4217 C.3     
  20 C20           -1.7468    -1.0257    -1.4286 C.3     
  21 C21           -1.2939    -0.7731     0.0108 C.3     
  22 C22           -3.5440    -2.0014    -2.8611 C.3     
  23 N23           -2.5518    -2.8861    -3.4852 N.3     
  24 C24           -1.2322    -2.2447    -3.5459 C.3     
  25 C25           -2.9921    -3.3118    -4.8204 C.3     
  26 C26           -1.8569    -4.0087    -5.5253 C.ar    
  27 C27           -1.7006    -5.3771    -5.3930 C.ar    
  28 C28           -0.6637    -6.0213    -6.0354 C.ar    
  29 C29           -0.7426    -1.9467    -2.1269 C.3     
  30 C30           -0.9791    -3.2780    -6.3063 C.ar    
  31 C31            0.0619    -3.9095    -6.9546 C.ar    
  32 C32            0.2290    -5.2893    -6.8209 C.ar    
  33 O33            7.9122     1.0549    -5.3789 O.3     
  34 C34            8.1943    -0.2008    -6.0000 C.3     
  35 F35            7.0344    -0.9827    -6.0190 F       
  36 F36            8.6325     0.0154    -7.3109 F       
  37 F37            9.1922    -0.8644    -5.2782 F       
  38 C38            1.3074    -5.9516    -7.4910 C.1     
  39 N39            2.1629    -6.4769    -8.0226 N.1     
  40 H40           -0.9607     1.9038     0.0169 H       
  41 H41            1.2202    -1.7641    -0.0188 H       
  42 H42            4.0706    -0.9906     0.8513 H       
  43 H43            4.0535    -0.9810    -0.9357 H       
  44 H44            6.4065     1.8264     0.4643 H       
  45 H45            6.5072     0.0493     0.4538 H       
  46 H46            6.5042     3.0888    -1.6050 H       
  47 H47            7.3009     3.1520    -3.9331 H       
  48 H48            7.5430    -1.1148    -3.9582 H       
  49 H49            6.7512    -1.1691    -1.6282 H       
  50 H50            1.1217     3.9671    -1.0157 H       
  51 H51            0.2470     3.9436     0.5344 H       
  52 H52            2.0266     3.9751     0.5171 H       
  53 H53           -3.0731    -2.6246    -0.8527 H       
  54 H54           -3.8518    -1.0271    -0.9638 H       
  55 H55           -1.8061    -0.0777    -1.9634 H       
  56 H56           -1.1471    -1.7267     0.5181 H       
  57 H57           -2.0553    -0.1960     0.5354 H       
  58 H58           -4.5174    -2.4919    -2.8588 H       
  59 H59           -3.6074    -1.0713    -3.4259 H       
  60 H60           -0.5266    -2.9118    -4.0410 H       
  61 H61           -1.3065    -1.3134    -4.1075 H       
  62 H62           -3.8348    -3.9964    -4.7240 H       
  63 H63           -3.2972    -2.4391    -5.3978 H       
  64 H64           -2.3918    -5.9420    -4.7851 H       
  65 H65           -0.5424    -7.0894    -5.9307 H       
  66 H66            0.2299    -1.4566    -2.1729 H       
  67 H67           -0.6548    -2.8790    -1.5690 H       
  68 H68           -1.1095    -2.2108    -6.4088 H       
  69 H69            0.7464    -3.3379    -7.5639 H       
@<TRIPOS>BOND
   1    1    2 ar
   2    1    6 ar
   3    1   40 1
   4    2    3 ar
   5    2   21 1
   6    3    4 ar
   7    3   41 1
   8    4    5 ar
   9    4    7 1
  10    5    6 ar
  11    5    9 1
  12    6   18 1
  13    7    8 1
  14    7   42 1
  15    7   43 1
  16    8    9 am
  17    8   10 1
  18    9   17 2
  19   10   11 1
  20   10   44 1
  21   10   45 1
  22   11   12 ar
  23   11   16 ar
  24   12   13 ar
  25   12   46 1
  26   13   14 ar
  27   13   47 1
  28   14   33 1
  29   14   15 ar
  30   15   16 ar
  31   15   48 1
  32   16   49 1
  33   18   50 1
  34   18   51 1
  35   18   52 1
  36   19   20 1
  37   19   22 1
  38   19   53 1
  39   19   54 1
  40   20   21 1
  41   20   29 1
  42   20   55 1
  43   21   56 1
  44   21   57 1
  45   22   23 1
  46   22   58 1
  47   22   59 1
  48   23   24 1
  49   23   25 1
  50   24   29 1
  51   24   60 1
  52   24   61 1
  53   25   26 1
  54   25   62 1
  55   25   63 1
  56   26   27 ar
  57   26   30 ar
  58   27   28 ar
  59   27   64 1
  60   28   32 ar
  61   28   65 1
  62   29   66 1
  63   29   67 1
  64   30   31 ar
  65   30   68 1
  66   31   32 ar
  67   31   69 1
  68   32   38 1
  69   33   34 1
  70   34   35 1
  71   34   36 1
  72   34   37 1
  73   38   39 3

#	End of record

