#	Name: ASD03092303
#	Creating user name:	WinNT
#	Creation time:	15. 06. 2019 20:32

#	Modifying user name:	WinNT
#	Modification time:	15. 06. 2019 20:32

#	Program:	/corina/corina34_cracker 3.40 0067  02.08.2006

@<TRIPOS>MOLECULE
ASD03092303
  59   62    0    0    0
SMALL
NO_CHARGES


@<TRIPOS>ATOM
   1 C1             0.3381     1.9868     0.1444 C.2     
   2 C2             0.5503     0.5257     0.2227 C.ar    
   3 C3             1.8454     0.0053     0.2343 C.ar    
   4 C4             2.0365    -1.3600     0.3075 C.ar    
   5 C5             0.9463    -2.2119     0.3689 C.ar    
   6 C6            -0.3392    -1.7015     0.3577 C.ar    
   7 C7            -0.5433    -0.3385     0.2911 C.ar    
   8 O8             1.2925     2.7376     0.0899 O.2     
   9 N9            -0.9137     2.4860     0.1277 N.am    
  10 C10           -1.1240     3.9338     0.0501 C.3     
  11 S11           -4.9831     4.7277    -0.6389 S.3     
  12 C12           -4.5795     4.5798     1.0156 C.2     
  13 N13           -3.3130     4.3230     1.1493 N.2     
  14 C14           -2.6022     4.2272     0.0467 C.2     
  15 C15           -3.3087     4.4139    -1.0878 C.2     
  16 C16           -2.5481     5.2853    -4.6608 C.ar    
  17 C17           -3.0704     5.3721    -3.3885 C.ar    
  18 C18           -2.7731     4.3635    -2.4622 C.ar    
  19 C19           -1.9528     3.3060    -2.8774 C.ar    
  20 C20           -1.4745     3.2996    -4.1697 C.ar    
  21 N21           -1.7790     4.2709    -5.0105 N.ar    
  22 C22           -0.5913     2.1684    -4.6296 C.3     
  23 C23           -2.8648     6.3598    -5.6689 C.3     
  24 N24           -5.4733     4.7146     2.0623 N.3     
  25 C25           -6.8266     5.0033     1.5656 C.3     
  26 C26           -7.7691     5.2036     2.7553 C.3     
  27 O27           -7.7340     4.0399     3.5860 O.3     
  28 C28           -6.4312     3.7298     4.0877 C.3     
  29 C29           -5.4751     3.5146     2.9115 C.3     
  30 C30           -6.4987     2.4550     4.9311 C.3     
  31 C31           -9.1947     5.4250     2.2460 C.3     
  32 Cl32           3.6461    -2.0101     0.3222 Cl      
  33 H33            2.6960     0.6691     0.1858 H       
  34 H34            1.1006    -3.2794     0.4254 H       
  35 H35           -1.1851    -2.3712     0.4055 H       
  36 H36           -1.5477     0.0586     0.2870 H       
  37 H37           -1.6754     1.8867     0.1671 H       
  38 H38           -0.6600     4.4150     0.9111 H       
  39 H39           -0.6753     4.3175    -0.8661 H       
  40 H40           -3.6986     6.2051    -3.1093 H       
  41 H41           -1.6990     2.5084    -2.1948 H       
  42 H42           -1.2082     1.3715    -5.0449 H       
  43 H43            0.0960     2.5316    -5.3937 H       
  44 H44           -0.0228     1.7840    -3.7827 H       
  45 H45           -2.1138     7.1474    -5.6084 H       
  46 H46           -2.8611     5.9304    -6.6708 H       
  47 H47           -3.8485     6.7786    -5.4567 H       
  48 H48           -6.8065     5.9098     0.9605 H       
  49 H49           -7.1777     4.1681     0.9596 H       
  50 H50           -7.4487     6.0717     3.3313 H       
  51 H51           -6.0720     4.5550     4.7025 H       
  52 H52           -5.8047     2.6556     2.3270 H       
  53 H53           -4.4686     3.3342     3.2889 H       
  54 H54           -6.8562     1.6301     4.3148 H       
  55 H55           -5.5055     2.2191     5.3132 H       
  56 H56           -7.1824     2.6075     5.7661 H       
  57 H57           -9.5146     4.5555     1.6719 H       
  58 H58           -9.8653     5.5675     3.0935 H       
  59 H59           -9.2200     6.3098     1.6099 H       
@<TRIPOS>BOND
   1    1    2 1
   2    1    8 2
   3    1    9 am
   4    2    3 ar
   5    2    7 ar
   6    3    4 ar
   7    3   33 1
   8    4    5 ar
   9    4   32 1
  10    5    6 ar
  11    5   34 1
  12    6    7 ar
  13    6   35 1
  14    7   36 1
  15    9   10 1
  16    9   37 1
  17   10   14 1
  18   10   38 1
  19   10   39 1
  20   11   12 1
  21   11   15 1
  22   12   13 2
  23   12   24 1
  24   13   14 1
  25   14   15 2
  26   15   18 1
  27   16   17 ar
  28   16   21 ar
  29   16   23 1
  30   17   18 ar
  31   17   40 1
  32   18   19 ar
  33   19   20 ar
  34   19   41 1
  35   20   21 ar
  36   20   22 1
  37   22   42 1
  38   22   43 1
  39   22   44 1
  40   23   45 1
  41   23   46 1
  42   23   47 1
  43   24   25 1
  44   24   29 1
  45   25   26 1
  46   25   48 1
  47   25   49 1
  48   26   27 1
  49   26   31 1
  50   26   50 1
  51   27   28 1
  52   28   29 1
  53   28   30 1
  54   28   51 1
  55   29   52 1
  56   29   53 1
  57   30   54 1
  58   30   55 1
  59   30   56 1
  60   31   57 1
  61   31   58 1
  62   31   59 1

#	End of record

