#	Name: ASD04880355
#	Creating user name:	WinNT
#	Creation time:	15. 06. 2019 20:53

#	Modifying user name:	WinNT
#	Modification time:	15. 06. 2019 20:53

#	Program:	/corina/corina34_cracker 3.40 0067  02.08.2006

@<TRIPOS>MOLECULE
ASD04880355
  39   41    0    0    0
SMALL
NO_CHARGES


@<TRIPOS>ATOM
   1 C1            -0.0304     1.4020    -0.2803 C.ar    
   2 C2            -0.0072     0.0135    -0.2588 C.ar    
   3 C3            -1.1866    -0.6966    -0.1960 C.ar    
   4 C4            -2.4071    -0.0176    -0.1539 C.ar    
   5 C5            -2.4256     1.3798    -0.1757 C.ar    
   6 C6            -1.2412     2.0814    -0.2332 C.ar    
   7 C7            -3.6713    -0.7727    -0.0871 C.2     
   8 N8            -4.8484    -0.2500    -0.0448 N.2     
   9 N9            -5.8830    -1.1814     0.0141 N.am    
  10 C10           -5.3056    -2.5349     0.0105 C.3     
  11 C11           -3.7871    -2.2801    -0.0643 C.3     
  12 C12           -7.1979    -0.8902     0.0663 C.2     
  13 O13           -8.0211    -1.7834     0.0114 O.2     
  14 C14           -7.6393     0.5149     0.1902 C.ar    
  15 C15           -8.9953     0.8340     0.1007 C.ar    
  16 C16           -6.7024     1.5275     0.4029 C.ar    
  17 C17           -7.1198     2.8376     0.5183 C.ar    
  18 C18           -8.4638     3.1499     0.4238 C.ar    
  19 C19           -9.4008     2.1496     0.2179 C.ar    
  20 F20          -10.7120     2.4620     0.1266 F       
  21 N21           -1.2594     3.5614    -0.2563 N.pl3   
  22 O22            1.1346     2.0979    -0.3418 O.3     
  23 C23            2.3435     1.3369    -0.3816 C.3     
  24 O24           -2.3209     4.1579    -0.2245 O.2     
  25 O25           -0.2130     4.1826    -0.3072 O.2     
  26 H26            0.9366    -0.5105    -0.2918 H       
  27 H27           -1.1676    -1.7764    -0.1797 H       
  28 H28           -3.3666     1.9088    -0.1436 H       
  29 H29           -5.5643    -3.0647     0.9272 H       
  30 H30           -5.6411    -3.0927    -0.8638 H       
  31 H31           -3.3709    -2.7143    -0.9733 H       
  32 H32           -3.2879    -2.6837     0.8167 H       
  33 H33           -9.7255     0.0547    -0.0601 H       
  34 H34           -5.6524     1.2859     0.4774 H       
  35 H35           -6.3951     3.6212     0.6833 H       
  36 H36           -8.7849     4.1770     0.5149 H       
  37 H37            2.4161     0.7229     0.5161 H       
  38 H38            2.3394     0.6942    -1.2620 H       
  39 H39            3.1971     2.0131    -0.4294 H       
@<TRIPOS>BOND
   1    1    2 ar
   2    1   22 1
   3    1    6 ar
   4    2    3 ar
   5    2   26 1
   6    3    4 ar
   7    3   27 1
   8    4    5 ar
   9    4    7 1
  10    5    6 ar
  11    5   28 1
  12    6   21 1
  13    7    8 2
  14    7   11 1
  15    8    9 1
  16    9   10 1
  17    9   12 am
  18   10   11 1
  19   10   29 1
  20   10   30 1
  21   11   31 1
  22   11   32 1
  23   12   13 2
  24   12   14 1
  25   14   15 ar
  26   14   16 ar
  27   15   19 ar
  28   15   33 1
  29   16   17 ar
  30   16   34 1
  31   17   18 ar
  32   17   35 1
  33   18   19 ar
  34   18   36 1
  35   19   20 1
  36   21   24 2
  37   21   25 2
  38   22   23 1
  39   23   37 1
  40   23   38 1
  41   23   39 1

#	End of record

