#	Name: ASD01920051
#	Creating user name:	WinNT
#	Creation time:	15. 06. 2019 20:11

#	Modifying user name:	WinNT
#	Modification time:	15. 06. 2019 20:11

#	Program:	/corina/corina34_cracker 3.40 0067  02.08.2006

@<TRIPOS>MOLECULE
ASD01920051
  35   37    0    0    0
SMALL
NO_CHARGES


@<TRIPOS>ATOM
   1 C1            -0.0282     1.4091    -0.0826 C.ar    
   2 C2            -0.0975     0.1554    -0.6683 C.ar    
   3 C3             1.0291    -0.3721    -1.2801 C.ar    
   4 C4             2.1929     0.3802    -1.2835 C.ar    
   5 C5             2.1902     1.6336    -0.6752 C.ar    
   6 N6             1.0895     2.1021    -0.1001 N.ar    
   7 C7             3.4260     2.4503    -0.6702 C.2     
   8 O8             4.4368     2.0262    -1.1952 O.2     
   9 N9             3.4297     3.6636    -0.0833 N.am    
  10 C10            4.6235     4.3877     0.0201 C.ar    
  11 C11            4.6065     5.7729    -0.0812 C.ar    
  12 C12            5.8237     3.7213     0.2295 C.ar    
  13 C13            7.0016     4.4359     0.3315 C.ar    
  14 C14            6.9848     5.8214     0.2244 C.ar    
  15 C15            5.7834     6.4873     0.0202 C.ar    
  16 N16            8.1786     6.5465     0.3282 N.pl3   
  17 Cl17           8.5023     3.6035     0.5938 Cl      
  18 C18            8.1525     7.8677     0.7424 C.ar    
  19 N19            9.2735     8.5740     0.7226 N.ar    
  20 C20            9.2830     9.8382     1.1112 C.ar    
  21 C21            8.1020    10.4220     1.5424 C.ar    
  22 C22            6.9477     9.6545     1.5504 C.ar    
  23 N23            7.0061     8.3971     1.1441 N.ar    
  24 H24           -0.9053     1.8249     0.3910 H       
  25 H25           -1.0201    -0.4057    -0.6480 H       
  26 H26            1.0006    -1.3473    -1.7433 H       
  27 H27            3.0894     0.0001    -1.7507 H       
  28 H28            2.6051     4.0351     0.2674 H       
  29 H29            3.6723     6.2911    -0.2396 H       
  30 H30            5.8363     2.6446     0.3130 H       
  31 H31            5.7703     7.5640    -0.0633 H       
  32 H32            9.0236     6.1232     0.1098 H       
  33 H33           10.1998    10.4087     1.0932 H       
  34 H34            8.0817    11.4523     1.8655 H       
  35 H35            6.0113    10.0791     1.8809 H       
@<TRIPOS>BOND
   1    1    2 ar
   2    1    6 ar
   3    1   24 1
   4    2    3 ar
   5    2   25 1
   6    3    4 ar
   7    3   26 1
   8    4    5 ar
   9    4   27 1
  10    5    6 ar
  11    5    7 1
  12    7    8 2
  13    7    9 am
  14    9   10 1
  15    9   28 1
  16   10   11 ar
  17   10   12 ar
  18   11   15 ar
  19   11   29 1
  20   12   13 ar
  21   12   30 1
  22   13   14 ar
  23   13   17 1
  24   14   15 ar
  25   14   16 1
  26   15   31 1
  27   16   18 1
  28   16   32 1
  29   18   19 ar
  30   18   23 ar
  31   19   20 ar
  32   20   21 ar
  33   20   33 1
  34   21   22 ar
  35   21   34 1
  36   22   23 ar
  37   22   35 1

#	End of record

