#	Name: ASD01121002
#	Creating user name:	WinNT
#	Creation time:	15. 06. 2019 18:59

#	Modifying user name:	WinNT
#	Modification time:	15. 06. 2019 18:59

#	Program:	/corina/corina34_cracker 3.40 0067  02.08.2006

@<TRIPOS>MOLECULE
ASD01121002
  31   32    0    0    0
SMALL
NO_CHARGES


@<TRIPOS>ATOM
   1 C1            -0.0160     1.3432     0.0043 C.2     
   2 N2             0.0027    -0.0044    -0.0091 N.am    
   3 O3            -1.0772     1.9363     0.0234 O.2     
   4 N4             1.1417     2.0332     0.0021 N.am    
   5 S5            -1.4198    -0.8523    -0.0064 S.o2    
   6 O6            -1.0671    -2.2278    -0.0574 O.2     
   7 O7            -2.2186    -0.2925     1.0269 O.2     
   8 C8            -2.2438    -0.4934    -1.5220 C.ar    
   9 H9             0.8493    -0.4776    -0.0203 H       
  10 H10            1.9871     1.5623     0.0684 H       
  11 C11            1.1241     3.4291    -0.0959 C.ar    
  12 C12           -2.0154    -1.2794    -2.6354 C.ar    
  13 C13           -2.6629    -0.9977    -3.8255 C.ar    
  14 C14           -3.5385     0.0707    -3.8998 C.ar    
  15 C15           -3.7661     0.8562    -2.7853 C.ar    
  16 C16           -3.1230     0.5711    -1.5955 C.ar    
  17 Cl17          -2.3761    -1.9843    -5.2247 Cl      
  18 C18            2.0749     4.1855     0.5763 C.ar    
  19 C19            2.0553     5.5642     0.4779 C.ar    
  20 C20            1.0891     6.1906    -0.2896 C.ar    
  21 C21            0.1404     5.4391    -0.9605 C.ar    
  22 C22            0.1592     4.0598    -0.8700 C.ar    
  23 Cl23          -1.0703     6.2288    -1.9218 Cl      
  24 Cl24           3.2434     6.5107     1.3184 Cl      
  25 H25           -1.3314    -2.1132    -2.5769 H       
  26 H26           -4.0439     0.2912    -4.8284 H       
  27 H27           -4.4496     1.6903    -2.8432 H       
  28 H28           -3.3014     1.1849    -0.7249 H       
  29 H29            2.8289     3.6971     1.1757 H       
  30 H30            1.0753     7.2679    -0.3649 H       
  31 H31           -0.5813     3.4737    -1.3940 H       
@<TRIPOS>BOND
   1    1    2 am
   2    1    4 am
   3    1    3 2
   4    2    5 am
   5    2    9 1
   6    4   10 1
   7    4   11 1
   8    5    7 2
   9    5    8 1
  10    5    6 2
  11    8   12 ar
  12    8   16 ar
  13   11   18 ar
  14   11   22 ar
  15   12   13 ar
  16   12   25 1
  17   13   14 ar
  18   13   17 1
  19   14   15 ar
  20   14   26 1
  21   15   16 ar
  22   15   27 1
  23   16   28 1
  24   18   19 ar
  25   18   29 1
  26   19   20 ar
  27   19   24 1
  28   20   21 ar
  29   20   30 1
  30   21   22 ar
  31   21   23 1
  32   22   31 1

#	End of record

