#	Name: ASD01910826
#	Creating user name:	WinNT
#	Creation time:	15. 06. 2019 19:56

#	Modifying user name:	WinNT
#	Modification time:	15. 06. 2019 19:56

#	Program:	/corina/corina34_cracker 3.40 0067  02.08.2006

@<TRIPOS>MOLECULE
ASD01910826
  49   52    0    0    0
SMALL
NO_CHARGES


@<TRIPOS>ATOM
   1 C1             0.0440     1.7596    -0.4815 C.ar    
   2 C2             0.0888     0.6325     0.3202 C.ar    
   3 C3             1.2909    -0.0800     0.3990 C.ar    
   4 C4             2.3979     0.3772    -0.3365 C.ar    
   5 N5             2.2997     1.4626    -1.0879 N.ar    
   6 C6             1.1760     2.1473    -1.1757 C.ar    
   7 N7             3.5972    -0.3108    -0.2744 N.3     
   8 C8             4.7374     0.6148    -0.3068 C.3     
   9 C9             6.0319    -0.1656    -0.0547 C.3     
  10 N10            6.1038    -1.2749    -1.0178 N.am    
  11 C11            4.9404    -2.1662    -1.1408 C.3     
  12 C12            3.6889    -1.3071    -1.3501 C.3     
  13 C13            7.2067    -1.4696    -1.7676 C.2     
  14 C14            7.3078    -2.6602    -2.6388 C.ar    
  15 O15            8.1184    -0.6666    -1.7276 O.2     
  16 C16            7.8695    -2.5494    -3.9127 C.ar    
  17 C17            7.9647    -3.6598    -4.7286 C.ar    
  18 C18            7.5060    -4.8862    -4.2924 C.ar    
  19 C19            6.9412    -5.0121    -3.0192 C.ar    
  20 C20            6.8481    -3.8957    -2.1883 C.ar    
  21 C21            6.4647    -6.2848    -2.5678 C.1     
  22 C22            6.0741    -7.3282    -2.1977 C.1     
  23 C23            5.5976    -8.6010    -1.7463 C.ar    
  24 N24            5.0618    -8.7133    -0.5347 N.ar    
  25 C25            4.6123    -9.8662    -0.0835 C.ar    
  26 C26            4.6821   -11.0090    -0.8591 C.ar    
  27 C27            5.2342   -10.9378    -2.1312 C.ar    
  28 C28            5.6939    -9.7149    -2.5845 C.ar    
  29 C29            1.3912    -1.2529     1.2143 C.1     
  30 N30            1.4708    -2.1834     1.8611 N.1     
  31 H31           -0.8692     2.3296    -0.5681 H       
  32 H32           -0.7822     0.3109     0.8717 H       
  33 H33            1.1389     3.0272    -1.8008 H       
  34 H34            4.7874     1.0964    -1.2833 H       
  35 H35            4.6130     1.3724     0.4669 H       
  36 H36            6.8893     0.4936    -0.1908 H       
  37 H37            6.0287    -0.5620     0.9607 H       
  38 H38            5.0761    -2.8297    -1.9948 H       
  39 H39            4.8322    -2.7549    -0.2298 H       
  40 H40            2.8039    -1.9432    -1.3330 H       
  41 H41            3.7534    -0.7987    -2.3121 H       
  42 H42            8.2302    -1.5928    -4.2609 H       
  43 H43            8.3997    -3.5677    -5.7128 H       
  44 H44            7.5832    -5.7503    -4.9357 H       
  45 H45            6.4129    -3.9866    -1.2041 H       
  46 H46            4.1836    -9.9199     0.9063 H       
  47 H47            4.3107   -11.9490    -0.4784 H       
  48 H48            5.2994   -11.8174    -2.7545 H       
  49 H49            6.1287    -9.6238    -3.5689 H       
@<TRIPOS>BOND
   1    1    2 ar
   2    1    6 ar
   3    1   31 1
   4    2    3 ar
   5    2   32 1
   6    3    4 ar
   7    3   29 1
   8    4    5 ar
   9    4    7 1
  10    5    6 ar
  11    6   33 1
  12    7    8 1
  13    7   12 1
  14    8    9 1
  15    8   34 1
  16    8   35 1
  17    9   10 1
  18    9   36 1
  19    9   37 1
  20   10   11 1
  21   10   13 am
  22   11   12 1
  23   11   38 1
  24   11   39 1
  25   12   40 1
  26   12   41 1
  27   13   14 1
  28   13   15 2
  29   14   16 ar
  30   14   20 ar
  31   16   17 ar
  32   16   42 1
  33   17   18 ar
  34   17   43 1
  35   18   19 ar
  36   18   44 1
  37   19   20 ar
  38   19   21 1
  39   20   45 1
  40   21   22 3
  41   22   23 1
  42   23   24 ar
  43   23   28 ar
  44   24   25 ar
  45   25   26 ar
  46   25   46 1
  47   26   27 ar
  48   26   47 1
  49   27   28 ar
  50   27   48 1
  51   28   49 1
  52   29   30 3

#	End of record

