#	Name: ASD01148911
#	Creating user name:	WinNT
#	Creation time:	15. 06. 2019 19:03

#	Modifying user name:	WinNT
#	Modification time:	15. 06. 2019 19:03

#	Program:	/corina/corina34_cracker 3.40 0067  02.08.2006

@<TRIPOS>MOLECULE
ASD01148911
  51   54    0    0    0
SMALL
NO_CHARGES


@<TRIPOS>ATOM
   1 N1            -0.0261     1.5511    -0.0164 N.am    
   2 C2            -0.0651     0.0834    -0.0711 C.3     
   3 C3             0.7828    -0.3885    -1.2564 C.3     
   4 C4             2.1910     0.1988    -1.1371 C.3     
   5 C5             2.1133     1.7267    -1.1768 C.3     
   6 C6             1.2805     2.2226     0.0095 C.3     
   7 S7            -1.4281     2.4321     0.0086 S.o2    
   8 O8            -1.0998     3.7229    -0.4865 O.2     
   9 O9            -2.4299     1.6085    -0.5722 O.2     
  10 C10           -1.8789     2.6471     1.6983 C.ar    
  11 C11           -1.4177     3.7451     2.4011 C.ar    
  12 C12           -1.7690     3.9162     3.7259 C.ar    
  13 C13           -2.5864     2.9846     4.3518 C.ar    
  14 C14           -3.0482     1.8834     3.6433 C.ar    
  15 C15           -2.6977     1.7206     2.3173 C.ar    
  16 N16           -2.9441     3.1551     5.6959 N.pl3   
  17 C17           -4.2096     3.4149     6.1622 C.2     
  18 C18           -4.1431     3.5120     7.5197 C.2     
  19 C19           -2.8035     3.3062     7.8901 C.2     
  20 C20           -2.0941     3.0851     6.7624 C.2     
  21 C21           -0.6140     2.8106     6.6925 C.3     
  22 C22           -5.4276     3.5630     5.3378 C.ar    
  23 C23           -6.5922     2.8696     5.6761 C.ar    
  24 C24           -7.7263     3.0127     4.9022 C.ar    
  25 C25           -7.7104     3.8412     3.7927 C.ar    
  26 C26           -6.5589     4.5307     3.4529 C.ar    
  27 C27           -5.4206     4.4006     4.2217 C.ar    
  28 Cl28          -9.1400     4.0154     2.8235 Cl      
  29 Cl29          -6.6130     1.8298     7.0662 Cl      
  30 H30            0.3391    -0.3276     0.8540 H       
  31 H31           -1.0945    -0.2501    -0.2024 H       
  32 H32            0.8410    -1.4770    -1.2516 H       
  33 H33            0.3260    -0.0523    -2.1872 H       
  34 H34            2.6378    -0.1178    -0.1946 H       
  35 H35            2.8036    -0.1553    -1.9662 H       
  36 H36            3.1185     2.1438    -1.1153 H       
  37 H37            1.6440     2.0431    -2.1083 H       
  38 H38            1.1389     3.3006    -0.0686 H       
  39 H39            1.7945     1.9861     0.9411 H       
  40 H40           -0.7819     4.4694     1.9138 H       
  41 H41           -1.4079     4.7735     4.2745 H       
  42 H42           -3.6839     1.1569     4.1276 H       
  43 H43           -3.0603     0.8666     1.7645 H       
  44 H44           -4.9679     3.7111     8.1877 H       
  45 H45           -2.4122     3.3179     8.8966 H       
  46 H46           -0.0740     3.7525     6.5959 H       
  47 H47           -0.2956     2.3009     7.6019 H       
  48 H48           -0.4017     2.1800     5.8292 H       
  49 H49           -8.6275     2.4774     5.1623 H       
  50 H50           -6.5528     5.1750     2.5862 H       
  51 H51           -4.5245     4.9424     3.9575 H       
@<TRIPOS>BOND
   1    1    2 1
   2    1    6 1
   3    1    7 am
   4    2    3 1
   5    2   30 1
   6    2   31 1
   7    3    4 1
   8    3   32 1
   9    3   33 1
  10    4    5 1
  11    4   34 1
  12    4   35 1
  13    5    6 1
  14    5   36 1
  15    5   37 1
  16    6   38 1
  17    6   39 1
  18    7    8 2
  19    7    9 2
  20    7   10 1
  21   10   11 ar
  22   10   15 ar
  23   11   12 ar
  24   11   40 1
  25   12   13 ar
  26   12   41 1
  27   13   14 ar
  28   13   16 1
  29   14   15 ar
  30   14   42 1
  31   15   43 1
  32   16   17 1
  33   16   20 1
  34   17   18 2
  35   17   22 1
  36   18   19 1
  37   18   44 1
  38   19   20 2
  39   19   45 1
  40   20   21 1
  41   21   46 1
  42   21   47 1
  43   21   48 1
  44   22   23 ar
  45   22   27 ar
  46   23   24 ar
  47   23   29 1
  48   24   25 ar
  49   24   49 1
  50   25   26 ar
  51   25   28 1
  52   26   27 ar
  53   26   50 1
  54   27   51 1

#	End of record

