#	Name: ASD01917433
#	Creating user name:	WinNT
#	Creation time:	15. 06. 2019 20:09

#	Modifying user name:	WinNT
#	Modification time:	15. 06. 2019 20:09

#	Program:	/corina/corina34_cracker 3.40 0067  02.08.2006

@<TRIPOS>MOLECULE
ASD01917433
  49   53    0    0    0
SMALL
NO_CHARGES


@<TRIPOS>ATOM
   1 C1             0.0321     1.7952     0.6571 C.ar    
   2 C2             0.1501     0.3940     0.8080 C.ar    
   3 C3            -0.9869    -0.4136     0.7963 C.ar    
   4 C4            -2.2178     0.1499     0.6251 C.ar    
   5 C5            -2.3501     1.5349     0.4580 C.ar    
   6 C6            -1.2297     2.3584     0.4754 C.ar    
   7 N7             1.1527     2.5500     0.7045 N.2     
   8 C8             2.3488     2.0378     0.8570 C.2     
   9 N9             2.5554     0.6974     0.9008 N.am    
  10 C10            1.4991    -0.1590     0.9599 C.2     
  11 O11            1.6700    -1.3517     1.1347 O.2     
  12 C12           -3.6915     2.1253     0.2620 C.2     
  13 C13            3.4760     3.0212     1.0327 C.3     
  14 C14            4.8284     2.4222     0.7158 C.3     
  15 C15            4.9854     1.0279     1.2872 C.3     
  16 C16            3.8831     0.0958     0.8378 C.3     
  17 C17            6.3318     0.4566     0.8381 C.3     
  18 C18            4.9705     1.1134     2.8148 C.3     
  19 N19           -3.9940     3.2971    -0.3792 N.pl3   
  20 N20           -5.2705     3.4563    -0.3342 N.2     
  21 N21           -5.8263     2.4782     0.2874 N.2     
  22 C22           -4.8890     1.6119     0.6782 C.2     
  23 C23           -3.0754     4.1696    -0.9784 C.ar    
  24 C24           -3.1771     5.5383    -0.7684 C.ar    
  25 C25           -2.2703     6.3956    -1.3603 C.ar    
  26 C26           -1.2622     5.8921    -2.1617 C.ar    
  27 C27           -1.1583     4.5294    -2.3727 C.ar    
  28 C28           -2.0583     3.6665    -1.7786 C.ar    
  29 H29           -0.8934    -1.4822     0.9221 H       
  30 H30           -3.0974    -0.4767     0.6180 H       
  31 H31           -1.3365     3.4256     0.3492 H       
  32 H32            3.3055     3.8732     0.3745 H       
  33 H33            3.4795     3.3717     2.0648 H       
  34 H34            4.9503     2.3767    -0.3664 H       
  35 H35            5.6055     3.0641     1.1309 H       
  36 H36            3.8954    -0.7911     1.4712 H       
  37 H37            4.0804    -0.2090    -0.1899 H       
  38 H38            7.1368     1.0959     1.2005 H       
  39 H39            6.4542    -0.5473     1.2446 H       
  40 H40            6.3635     0.4142    -0.2506 H       
  41 H41            4.0247     1.5427     3.1454 H       
  42 H42            5.0829     0.1143     3.2357 H       
  43 H43            5.7932     1.7442     3.1514 H       
  44 H44           -5.0446     0.6918     1.2218 H       
  45 H45           -3.9647     5.9322    -0.1431 H       
  46 H46           -2.3489     7.4603    -1.1974 H       
  47 H47           -0.5547     6.5644    -2.6241 H       
  48 H48           -0.3698     4.1391    -2.9992 H       
  49 H49           -1.9767     2.6024    -1.9437 H       
@<TRIPOS>BOND
   1    1    2 ar
   2    1    7 1
   3    1    6 ar
   4    2    3 ar
   5    2   10 1
   6    3    4 ar
   7    3   29 1
   8    4    5 ar
   9    4   30 1
  10    5    6 ar
  11    5   12 1
  12    6   31 1
  13    7    8 2
  14    8    9 1
  15    8   13 1
  16    9   10 am
  17    9   16 1
  18   10   11 2
  19   12   19 1
  20   12   22 2
  21   13   14 1
  22   13   32 1
  23   13   33 1
  24   14   15 1
  25   14   34 1
  26   14   35 1
  27   15   16 1
  28   15   17 1
  29   15   18 1
  30   16   36 1
  31   16   37 1
  32   17   38 1
  33   17   39 1
  34   17   40 1
  35   18   41 1
  36   18   42 1
  37   18   43 1
  38   19   23 1
  39   19   20 1
  40   20   21 2
  41   21   22 1
  42   22   44 1
  43   23   24 ar
  44   23   28 ar
  45   24   25 ar
  46   24   45 1
  47   25   26 ar
  48   25   46 1
  49   26   27 ar
  50   26   47 1
  51   27   28 ar
  52   27   48 1
  53   28   49 1

#	End of record

