#	Name: ASD01884771
#	Creating user name:	WinNT
#	Creation time:	15. 06. 2019 19:48

#	Modifying user name:	WinNT
#	Modification time:	15. 06. 2019 19:48

#	Program:	/corina/corina34_cracker 3.40 0067  02.08.2006

@<TRIPOS>MOLECULE
ASD01884771
  34   36    0    0    0
SMALL
NO_CHARGES


@<TRIPOS>ATOM
   1 C1            -0.0163     1.3517     0.0095 C.2     
   2 C2             0.0021    -0.0041     0.0020 C.2     
   3 C3             1.2976    -0.6858    -0.0141 C.ar    
   4 C4             2.4747     0.0860    -0.0212 C.ar    
   5 N5             2.3876     1.4618    -0.0126 N.am    
   6 C6             1.1932     2.0791     0.0018 C.2     
   7 C7             1.3804    -2.0822    -0.0219 C.ar    
   8 C8             2.6046    -2.6879    -0.0364 C.ar    
   9 C9             3.7678    -1.9300    -0.0436 C.ar    
  10 C10            3.7103    -0.5532    -0.0365 C.ar    
  11 C11           -1.2826    -0.7918     0.0106 C.3     
  12 O12            1.1540     3.2973     0.0091 O.2     
  13 C13            3.6142     2.2629    -0.0200 C.3     
  14 C14            4.0208     2.5456    -1.4433 C.ar    
  15 H15            2.6683    -3.7660    -0.0421 H       
  16 C16            3.5526     3.6777    -2.0837 C.ar    
  17 C17            3.9252     3.9376    -3.3891 C.ar    
  18 C18            4.7670     3.0644    -4.0548 C.ar    
  19 C19            5.2352     1.9315    -3.4133 C.ar    
  20 C20            4.8664     1.6757    -2.1061 C.ar    
  21 Cl21           5.2349     3.3898    -5.6946 Cl      
  22 H22           -0.9600     1.8770     0.0168 H       
  23 H23            0.4802    -2.6789    -0.0160 H       
  24 H24            4.7278    -2.4246    -0.0551 H       
  25 H25            4.6209     0.0275    -0.0422 H       
  26 H26           -2.1295    -0.1056     0.0227 H       
  27 H27           -1.3327    -1.4149    -0.8823 H       
  28 H28           -1.3150    -1.4245     0.8976 H       
  29 H29            3.4368     3.2037     0.5009 H       
  30 H30            4.4100     1.7135     0.4829 H       
  31 H31            2.8953     4.3591    -1.5641 H       
  32 H32            3.5591     4.8219    -3.8894 H       
  33 H33            5.8923     1.2496    -3.9325 H       
  34 H34            5.2319     0.7914    -1.6052 H       
@<TRIPOS>BOND
   1    1    2 2
   2    1    6 1
   3    1   22 1
   4    2    3 1
   5    2   11 1
   6    3    4 ar
   7    3    7 ar
   8    4    5 1
   9    4   10 ar
  10    5    6 am
  11    5   13 1
  12    6   12 2
  13    7    8 ar
  14    7   23 1
  15    8    9 ar
  16    8   15 1
  17    9   10 ar
  18    9   24 1
  19   10   25 1
  20   11   26 1
  21   11   27 1
  22   11   28 1
  23   13   14 1
  24   13   29 1
  25   13   30 1
  26   14   16 ar
  27   14   20 ar
  28   16   17 ar
  29   16   31 1
  30   17   18 ar
  31   17   32 1
  32   18   19 ar
  33   18   21 1
  34   19   20 ar
  35   19   33 1
  36   20   34 1

#	End of record

