#	Name: ASD01840153
#	Creating user name:	WinNT
#	Creation time:	15. 06. 2019 19:37

#	Modifying user name:	WinNT
#	Modification time:	15. 06. 2019 19:37

#	Program:	/corina/corina34_cracker 3.40 0067  02.08.2006

@<TRIPOS>MOLECULE
ASD01840153
  48   51    0    0    0
SMALL
NO_CHARGES


@<TRIPOS>ATOM
   1 C1             0.9582     0.1392     3.6385 C.ar    
   2 C2             1.2793    -1.1857     3.9232 C.ar    
   3 N3             2.4662    -1.6796     3.6636 N.ar    
   4 C4             3.4258    -0.9315     3.1114 C.ar    
   5 C5             3.1658     0.4260     2.7955 C.ar    
   6 C6             1.8924     0.9602     3.0733 C.ar    
   7 C7             1.5692     2.3973     2.7548 C.3     
   8 C8             0.2351    -2.0756     4.5467 C.3     
   9 C9             4.6959    -1.4736     2.8383 C.ar    
  10 C10            5.6600    -0.7003     2.2780 C.ar    
  11 C11            5.4123     0.6473     1.9612 C.ar    
  12 C12            4.1729     1.2112     2.2170 C.ar    
  13 C13            6.4803     1.4669     1.3520 C.2     
  14 N14            7.6875     0.9224     1.1015 N.am    
  15 O15            6.2702     2.6321     1.0768 O.2     
  16 C16            8.7464     1.7349     0.4976 C.3     
  17 C17           10.1676     1.2354     0.8144 C.3     
  18 C18            9.0503     1.3680    -0.9662 C.3     
  19 N19           10.4769     1.5192    -0.6044 N.3     
  20 C20           11.2465     0.4960    -1.1634 C.ar    
  21 C21           10.7548    -0.8057    -1.2238 C.ar    
  22 C22           11.5552    -1.7860    -1.7873 C.ar    
  23 C23           12.8055    -1.4435    -2.2673 C.ar    
  24 N24           13.2423    -0.2012    -2.1953 N.ar    
  25 C25           12.5113     0.7628    -1.6725 C.ar    
  26 C26           13.6818    -2.5047    -2.8811 C.3     
  27 F27           13.4294    -2.5808    -4.2550 F       
  28 F28           15.0260    -2.1783    -2.6713 F       
  29 F29           13.4038    -3.7403    -2.2867 F       
  30 H30           -0.0294     0.5159     3.8602 H       
  31 H31            1.1701     2.4643     1.7427 H       
  32 H32            0.8284     2.7686     3.4629 H       
  33 H33            2.4755     2.9985     2.8285 H       
  34 H34           -0.3376    -2.5690     3.7614 H       
  35 H35            0.7222    -2.8272     5.1679 H       
  36 H36           -0.4345    -1.4743     5.1616 H       
  37 H37            4.9035    -2.5066     3.0754 H       
  38 H38            6.6312    -1.1257     2.0727 H       
  39 H39            3.9843     2.2462     1.9731 H       
  40 H40            7.8552    -0.0074     1.3212 H       
  41 H41            8.6095     2.8033     0.6644 H       
  42 H42           10.7092     1.8687     1.5172 H       
  43 H43           10.2141     0.1771     1.0709 H       
  44 H44            8.7700     0.3484    -1.2306 H       
  45 H45            8.6991     2.1071    -1.6862 H       
  46 H46            9.7738    -1.0450    -0.8405 H       
  47 H47           11.2066    -2.8062    -1.8505 H       
  48 H48           12.9032     1.7683    -1.6309 H       
@<TRIPOS>BOND
   1    1    2 ar
   2    1    6 ar
   3    1   30 1
   4    2    3 ar
   5    2    8 1
   6    3    4 ar
   7    4    5 ar
   8    4    9 ar
   9    5    6 ar
  10    5   12 ar
  11    6    7 1
  12    7   31 1
  13    7   32 1
  14    7   33 1
  15    8   34 1
  16    8   35 1
  17    8   36 1
  18    9   10 ar
  19    9   37 1
  20   10   11 ar
  21   10   38 1
  22   11   12 ar
  23   11   13 1
  24   12   39 1
  25   13   14 am
  26   13   15 2
  27   14   16 1
  28   14   40 1
  29   16   17 1
  30   16   18 1
  31   16   41 1
  32   17   19 1
  33   17   42 1
  34   17   43 1
  35   18   19 1
  36   18   44 1
  37   18   45 1
  38   19   20 1
  39   20   21 ar
  40   20   25 ar
  41   21   22 ar
  42   21   46 1
  43   22   23 ar
  44   22   47 1
  45   23   26 1
  46   23   24 ar
  47   24   25 ar
  48   25   48 1
  49   26   27 1
  50   26   28 1
  51   26   29 1

#	End of record

