#	Name: ASD02198620
#	Creating user name:	WinNT
#	Creation time:	15. 06. 2019 20:19

#	Modifying user name:	WinNT
#	Modification time:	15. 06. 2019 20:19

#	Program:	/corina/corina34_cracker 3.40 0067  02.08.2006

@<TRIPOS>MOLECULE
ASD02198620
  48   51    0    0    0
SMALL
NO_CHARGES


@<TRIPOS>ATOM
   1 C1            -0.1506     1.4310     0.4367 C.2     
   2 C2            -0.1742     0.0773     0.5249 C.2     
   3 N3             0.9730    -0.6382     0.5127 N.pl3   
   4 N4             2.1346    -0.1042     0.4196 N.2     
   5 C5             2.3001     1.1977     0.3276 C.2     
   6 C6             1.1110     2.0645     0.3321 C.2     
   7 C7             0.8880    -2.0315     0.6071 C.ar    
   8 C8             2.0280    -2.8097     0.4462 C.ar    
   9 C9             1.9441    -4.1838     0.5392 C.ar    
  10 C10            0.7197    -4.7895     0.7942 C.ar    
  11 C11           -0.4202    -4.0113     0.9556 C.ar    
  12 C12           -0.3354    -2.6369     0.8673 C.ar    
  13 C13            3.6546     1.7786     0.2221 C.2     
  14 N14            4.8334     1.0929     0.2362 N.pl3   
  15 N15            5.8715     2.0246     0.1116 N.2     
  16 C16            5.3527     3.2231     0.0255 C.2     
  17 C17            3.9636     3.1138     0.0851 C.2     
  18 C18            4.9864    -0.3589     0.3599 C.3     
  19 C19            5.0116    -0.9897    -1.0337 C.3     
  20 O20            1.2084     3.2798     0.2487 O.2     
  21 N21            0.6348    -6.1807     0.8880 N.3     
  22 C22           -0.7455    -6.6070     1.1610 C.3     
  23 C23            1.5520    -6.6966     1.9145 C.3     
  24 C24            1.4705    -8.2252     1.9423 C.3     
  25 O25            0.1166    -8.6212     2.1777 O.3     
  26 C26           -0.8039    -8.1365     1.1963 C.3     
  27 O27            5.1609    -2.4057    -0.9130 O.3     
  28 H28           -1.0647     2.0062     0.4416 H       
  29 H29           -1.1214    -0.4353     0.6062 H       
  30 H30            2.9795    -2.3389     0.2480 H       
  31 H31            2.8300    -4.7886     0.4135 H       
  32 H32           -1.3718    -4.4821     1.1533 H       
  33 H33           -1.2214    -2.0321     0.9927 H       
  34 H34            5.9080     4.1435    -0.0782 H       
  35 H35            3.2576     3.9298     0.0389 H       
  36 H36            5.9193    -0.5831     0.8772 H       
  37 H37            4.1494    -0.7653     0.9277 H       
  38 H38            4.0787    -0.7655    -1.5510 H       
  39 H39            5.8486    -0.5832    -1.6015 H       
  40 H40           -1.0660    -6.2082     2.1234 H       
  41 H41           -1.4033    -6.2357     0.3752 H       
  42 H42            2.5713    -6.3907     1.6787 H       
  43 H43            1.2683    -6.2992     2.8890 H       
  44 H44            1.8055    -8.6250     0.9852 H       
  45 H45            2.1060    -8.6091     2.7403 H       
  46 H46           -1.8134    -8.4563     1.4548 H       
  47 H47           -0.5351    -8.5337     0.2175 H       
  48 H48            5.1848    -2.8723    -1.7597 H       
@<TRIPOS>BOND
   1    1    2 2
   2    1    6 1
   3    1   28 1
   4    2    3 1
   5    2   29 1
   6    3    4 1
   7    3    7 1
   8    4    5 2
   9    5    6 1
  10    5   13 1
  11    6   20 2
  12    7    8 ar
  13    7   12 ar
  14    8    9 ar
  15    8   30 1
  16    9   10 ar
  17    9   31 1
  18   10   11 ar
  19   10   21 1
  20   11   12 ar
  21   11   32 1
  22   12   33 1
  23   13   14 1
  24   13   17 2
  25   14   15 1
  26   14   18 1
  27   15   16 2
  28   16   17 1
  29   16   34 1
  30   17   35 1
  31   18   19 1
  32   18   36 1
  33   18   37 1
  34   19   27 1
  35   19   38 1
  36   19   39 1
  37   21   22 1
  38   21   23 1
  39   22   26 1
  40   22   40 1
  41   22   41 1
  42   23   24 1
  43   23   42 1
  44   23   43 1
  45   24   25 1
  46   24   44 1
  47   24   45 1
  48   25   26 1
  49   26   46 1
  50   26   47 1
  51   27   48 1

#	End of record

