#	Name: ASD05313168
#	Creating user name:	WinNT
#	Creation time:	15. 06. 2019 20:58

#	Modifying user name:	WinNT
#	Modification time:	15. 06. 2019 20:58

#	Program:	/corina/corina34_cracker 3.40 0067  02.08.2006

@<TRIPOS>MOLECULE
ASD05313168
  42   45    0    0    0
SMALL
NO_CHARGES


@<TRIPOS>ATOM
   1 C1             0.5794    -0.4458    -1.7765 C.ar    
   2 C2            -0.2828    -0.1930    -0.7003 C.ar    
   3 C3             0.1050     0.7342     0.2705 C.ar    
   4 C4             1.3297     1.3651     0.1257 C.ar    
   5 C5             2.1248     1.0628    -0.9634 C.ar    
   6 N6             1.7376     0.1833    -1.8682 N.ar    
   7 O7             0.2248    -1.3458    -2.7264 O.3     
   8 C8            -3.6882    -1.3558    -0.3187 C.2     
   9 C9            -5.1627    -1.1729    -0.0495 C.3     
  10 N10           -2.7842    -0.3342    -0.2982 N.pl3   
  11 N11           -5.3370     0.1948     0.4753 N.am    
  12 C12           -4.6039     1.2884    -0.1800 C.3     
  13 C13           -3.0971     1.0633    -0.0061 C.3     
  14 N14           -1.7932    -2.1831    -0.7720 N.2     
  15 N15           -3.0442    -2.4451    -0.6069 N.2     
  16 C16           -1.5797    -0.8946    -0.5947 C.2     
  17 C17           -6.1460     0.4354     1.5260 C.2     
  18 O18           -6.2068     1.5518     2.0032 O.2     
  19 C19           -6.9591    -0.6578     2.0981 C.ar    
  20 C20           -7.0129    -0.8425     3.4821 C.ar    
  21 C21           -7.7751    -1.8665     4.0092 C.ar    
  22 C22           -8.4832    -2.7077     3.1701 C.ar    
  23 C23           -8.4335    -2.5301     1.7987 C.ar    
  24 C24           -7.6817    -1.5074     1.2587 C.ar    
  25 C25           -7.8350    -2.0681     5.5014 C.3     
  26 F26           -8.6633    -3.1575     5.7920 F       
  27 F27           -6.5481    -2.3173     5.9904 F       
  28 F28           -8.3492    -0.9167     6.1073 F       
  29 Cl29          -6.1237     0.2121     4.5361 Cl      
  30 H30           -0.5344     0.9537     1.1128 H       
  31 H31            1.6602     2.0874     0.8575 H       
  32 H32            3.0794     1.5551    -1.0763 H       
  33 H33           -0.3303    -0.9791    -3.4281 H       
  34 H34           -5.7272    -1.2913    -0.9744 H       
  35 H35           -5.4992    -1.9006     0.6889 H       
  36 H36           -4.8492     1.3058    -1.2420 H       
  37 H37           -4.8848     2.2385     0.2745 H       
  38 H38           -2.8101     1.2941     1.0199 H       
  39 H39           -2.5506     1.7101    -0.6925 H       
  40 H40           -9.0774    -3.5073     3.5873 H       
  41 H41           -8.9884    -3.1913     1.1496 H       
  42 H42           -7.6483    -1.3672     0.1883 H       
@<TRIPOS>BOND
   1    1    2 ar
   2    1    6 ar
   3    1    7 1
   4    2    3 ar
   5    2   16 1
   6    3    4 ar
   7    3   30 1
   8    4    5 ar
   9    4   31 1
  10    5    6 ar
  11    5   32 1
  12    7   33 1
  13    8    9 1
  14    8   10 1
  15    8   15 2
  16    9   11 1
  17    9   34 1
  18    9   35 1
  19   10   13 1
  20   10   16 1
  21   11   12 1
  22   11   17 am
  23   12   13 1
  24   12   36 1
  25   12   37 1
  26   13   38 1
  27   13   39 1
  28   14   15 1
  29   14   16 2
  30   17   18 2
  31   17   19 1
  32   19   20 ar
  33   19   24 ar
  34   20   21 ar
  35   20   29 1
  36   21   22 ar
  37   21   25 1
  38   22   23 ar
  39   22   40 1
  40   23   24 ar
  41   23   41 1
  42   24   42 1
  43   25   26 1
  44   25   27 1
  45   25   28 1

#	End of record

