#	Name: ASD01881874
#	Creating user name:	WinNT
#	Creation time:	15. 06. 2019 19:43

#	Modifying user name:	WinNT
#	Modification time:	15. 06. 2019 19:43

#	Program:	/corina/corina34_cracker 3.40 0067  02.08.2006

@<TRIPOS>MOLECULE
ASD01881874
  26   27    0    0    0
SMALL
NO_CHARGES


@<TRIPOS>ATOM
   1 C1            -0.0161     1.3337     0.0094 C.2     
   2 N2             0.0021    -0.0041     0.0020 N.am    
   3 C3             1.2613    -0.4841    -0.0126 C.2     
   4 C4             2.1640     0.7337    -0.0147 C.3     
   5 N5             1.2200     1.8645     0.0004 N.am    
   6 O6            -1.0354     1.9955     0.0180 O.2     
   7 O7             1.6013    -1.6477    -0.0215 O.2     
   8 C8            -1.1986    -0.8435     0.0097 C.3     
   9 C9             1.5609     3.2893     0.0041 C.3     
  10 C10            1.6916     3.7708     1.4261 C.ar    
  11 C11            2.9378     3.8068     2.0231 C.ar    
  12 C12            3.0477     4.2517     3.3313 C.ar    
  13 C13            1.8939     4.6461     3.9936 C.ar    
  14 C14            0.6819     4.5823     3.3311 C.ar    
  15 N15            0.6166     4.1580     2.0841 N.ar    
  16 Br16           1.9779     5.2621     5.7795 Br      
  17 H17            2.7924     0.7467     0.8759 H       
  18 H18            2.7753     0.7564    -0.9169 H       
  19 H19           -1.5068    -1.0461    -1.0159 H       
  20 H20           -0.9813    -1.7838     0.5163 H       
  21 H21           -2.0010    -0.3250     0.5345 H       
  22 H22            2.5060     3.4381    -0.5182 H       
  23 H23            0.7749     3.8522    -0.4994 H       
  24 H24            3.8149     3.4917     1.4773 H       
  25 H25            4.0083     4.2903     3.8234 H       
  26 H26           -0.2210     4.8870     3.8393 H       
@<TRIPOS>BOND
   1    1    2 am
   2    1    5 am
   3    1    6 2
   4    2    3 am
   5    2    8 1
   6    3    4 1
   7    3    7 2
   8    4    5 1
   9    4   17 1
  10    4   18 1
  11    5    9 1
  12    8   19 1
  13    8   20 1
  14    8   21 1
  15    9   10 1
  16    9   22 1
  17    9   23 1
  18   10   11 ar
  19   10   15 ar
  20   11   12 ar
  21   11   24 1
  22   12   13 ar
  23   12   25 1
  24   13   14 ar
  25   13   16 1
  26   14   15 ar
  27   14   26 1

#	End of record

