#	Name: ASD00310081
#	Creating user name:	WinNT
#	Creation time:	15. 06. 2019 18:33

#	Modifying user name:	WinNT
#	Modification time:	15. 06. 2019 18:33

#	Program:	/corina/corina34_cracker 3.40 0067  02.08.2006

@<TRIPOS>MOLECULE
ASD00310081
  38   40    0    0    0
SMALL
NO_CHARGES


@<TRIPOS>ATOM
   1 C1            -0.0184     1.5028     0.0103 C.2     
   2 C2             0.0021    -0.0041     0.0020 C.3     
   3 N3             3.3745     2.7065    -0.0164 N.pl3   
   4 C4             2.4743     1.7048    -0.0129 C.2     
   5 C5             1.1991     2.2279     0.0026 C.2     
   6 C6             1.3570     3.6963     0.0089 C.ar    
   7 C7             0.4637     4.7612     0.0239 C.ar    
   8 C8             0.9483     6.0632     0.0266 C.ar    
   9 C9             2.3278     6.2960     0.0142 C.ar    
  10 C10            3.2135     5.2428    -0.0011 C.ar    
  11 C11            2.7410     3.9328    -0.0035 C.ar    
  12 C12            0.0031     7.2066     0.0421 C.ar    
  13 C13            0.1647     8.2337     0.9704 C.ar    
  14 C14           -0.7153     9.2955     0.9820 C.ar    
  15 C15           -1.7612     9.3421     0.0703 C.ar    
  16 C16           -1.9247     8.3206    -0.8555 C.ar    
  17 C17           -1.0448     7.2588    -0.8754 C.ar    
  18 O18           -2.6270    10.3893     0.0845 O.3     
  19 C19           -3.6801    10.3736    -0.8812 C.3     
  20 C20           -4.5458    11.6238    -0.7123 C.3     
  21 Cl21           2.9267     7.9255     0.0175 Cl      
  22 Cl22          -1.6894    -0.6281     0.0148 Cl      
  23 Cl23           0.8460    -0.5855    -1.4814 Cl      
  24 Cl24           0.8741    -0.6013     1.4627 Cl      
  25 O25           -1.0779     2.0954     0.0186 O.2     
  26 H26            4.3366     2.5831    -0.0229 H       
  27 H27            2.7150     0.6520    -0.0213 H       
  28 H28           -0.6006     4.5775     0.0331 H       
  29 H29            4.2767     5.4325    -0.0110 H       
  30 H30            0.9780     8.1978     1.6801 H       
  31 H31           -0.5908    10.0915     1.7013 H       
  32 H32           -2.7393     8.3596    -1.5635 H       
  33 H33           -1.1700     6.4665    -1.5986 H       
  34 H34           -3.2533    10.3599    -1.8841 H       
  35 H35           -4.2936     9.4845    -0.7353 H       
  36 H36           -3.9323    12.5129    -0.8582 H       
  37 H37           -5.3491    11.6117    -1.4489 H       
  38 H38           -4.9726    11.6374     0.2906 H       
@<TRIPOS>BOND
   1    1    2 1
   2    1    5 1
   3    1   25 2
   4    2   22 1
   5    2   23 1
   6    2   24 1
   7    3    4 1
   8    3   11 1
   9    3   26 1
  10    4    5 2
  11    4   27 1
  12    5    6 1
  13    6    7 ar
  14    6   11 ar
  15    7    8 ar
  16    7   28 1
  17    8    9 ar
  18    8   12 1
  19    9   10 ar
  20    9   21 1
  21   10   11 ar
  22   10   29 1
  23   12   13 ar
  24   12   17 ar
  25   13   14 ar
  26   13   30 1
  27   14   15 ar
  28   14   31 1
  29   15   16 ar
  30   15   18 1
  31   16   17 ar
  32   16   32 1
  33   17   33 1
  34   18   19 1
  35   19   20 1
  36   19   34 1
  37   19   35 1
  38   20   36 1
  39   20   37 1
  40   20   38 1

#	End of record

