#	Name: ASD01020002
#	Creating user name:	WinNT
#	Creation time:	15. 06. 2019 18:56

#	Modifying user name:	WinNT
#	Modification time:	15. 06. 2019 18:56

#	Program:	/corina/corina34_cracker 3.40 0067  02.08.2006

@<TRIPOS>MOLECULE
ASD01020002
  35   36    0    0    0
SMALL
NO_CHARGES


@<TRIPOS>ATOM
   1 C1            -0.0176     1.4478     0.0100 C.3     
   2 O2             0.0021    -0.0041     0.0020 O.3     
   3 C3             0.5984    -0.5997    -1.0427 C.2     
   4 O4             1.0877     0.0699    -1.9214 O.2     
   5 C5             0.6575    -2.1036    -1.1196 C.3     
   6 N6             1.3539    -2.5028    -2.3452 N.am    
   7 C7             0.6747    -2.5992    -3.5053 C.2     
   8 O8            -0.5130    -2.3553    -3.5347 O.2     
   9 C9             1.3910    -3.0098    -4.7659 C.3     
  10 C10            1.4117    -2.6471     0.0956 C.3     
  11 S11            1.4829    -4.4574     0.0030 S.3     
  12 C12            2.3721    -4.8941     1.4600 C.ar    
  13 C13            2.8140    -3.9306     2.3232 C.ar    
  14 C14            3.5198    -4.2521     3.4837 C.ar    
  15 C15            3.8139    -5.5293     3.8330 C.ar    
  16 C16            3.4052    -6.5969     3.0138 C.ar    
  17 C17            2.6472    -6.2918     1.7739 C.ar    
  18 N18            2.4308    -7.4750     1.2654 N.2     
  19 O19            2.9225    -8.3161     1.9914 O.3     
  20 N20            3.4809    -7.9054     2.9893 N.2     
  21 N21            4.5676    -5.8002     5.0795 N.pl3   
  22 O22            4.9224    -4.8764     5.7896 O.2     
  23 O23            4.8322    -6.9467     5.3942 O.2     
  24 H24            1.0050     1.8251     0.0023 H       
  25 H25           -0.5448     1.8089    -0.8731 H       
  26 H26           -0.5278     1.7993     0.9068 H       
  27 H27           -0.3550    -2.5070    -1.1292 H       
  28 H28            2.3038    -2.6978    -2.3217 H       
  29 H29            2.4438    -3.1857    -4.5448 H       
  30 H30            0.9441    -3.9241    -5.1564 H       
  31 H31            1.3033    -2.2167    -5.5085 H       
  32 H32            2.4242    -2.2437     0.1052 H       
  33 H33            0.8935    -2.3501     1.0074 H       
  34 H34            2.6118    -2.8932     2.1012 H       
  35 H35            3.8456    -3.4506     4.1302 H       
@<TRIPOS>BOND
   1    1    2 1
   2    1   24 1
   3    1   25 1
   4    1   26 1
   5    2    3 1
   6    3    4 2
   7    3    5 1
   8    5    6 1
   9    5   10 1
  10    5   27 1
  11    6    7 am
  12    6   28 1
  13    7    8 2
  14    7    9 1
  15    9   29 1
  16    9   30 1
  17    9   31 1
  18   10   11 1
  19   10   32 1
  20   10   33 1
  21   11   12 1
  22   12   13 ar
  23   12   17 ar
  24   13   14 ar
  25   13   34 1
  26   14   15 ar
  27   14   35 1
  28   15   16 ar
  29   15   21 1
  30   16   17 ar
  31   16   20 2
  32   17   18 2
  33   18   19 1
  34   19   20 1
  35   21   22 2
  36   21   23 2

#	End of record

