#	Name: ASD01813265
#	Creating user name:	WinNT
#	Creation time:	15. 06. 2019 19:30

#	Modifying user name:	WinNT
#	Modification time:	15. 06. 2019 19:30

#	Program:	/corina/corina34_cracker 3.40 0067  02.08.2006

@<TRIPOS>MOLECULE
ASD01813265
  58   62    0    0    0
SMALL
NO_CHARGES


@<TRIPOS>ATOM
   1 C1            -0.0178     1.4608     0.0101 C.3     
   2 N2             0.0021    -0.0041     0.0020 N.pl3   
   3 C3             0.0077    -0.7875    -1.0939 C.2     
   4 C4             0.0273    -2.0862    -0.6731 C.2     
   5 C5             0.0335    -2.0755     0.7360 C.2     
   6 N6             0.0245    -0.8305     1.1319 N.2     
   7 C7             0.0393    -3.2890    -1.5409 C.ar    
   8 C8             0.0533    -4.5572    -0.9640 C.ar    
   9 C9             0.0639    -5.6700    -1.7865 C.ar    
  10 C10            0.0601    -5.4781    -3.1611 C.ar    
  11 C11            0.0708    -6.6613    -4.0943 C.3     
  12 N12           -1.3069    -7.0587    -4.3948 N.pl3   
  13 C13           -1.9948    -8.0212    -3.7370 C.2     
  14 C14           -3.2467    -8.1388    -4.2675 C.2     
  15 C15           -4.3002    -9.0676    -3.8359 C.2     
  16 O16           -5.3787    -9.0682    -4.3989 O.2     
  17 N17           -4.0717    -9.9190    -2.8164 N.am    
  18 C18           -5.1221   -10.8451    -2.3860 C.3     
  19 H19           -6.0951   -10.3649    -2.4906 H       
  20 C20           -5.0789   -12.1043    -3.2540 C.3     
  21 C21           -6.1759   -13.0715    -2.8046 C.3     
  22 C22           -5.9505   -13.4535    -1.3403 C.3     
  23 C23           -5.9937   -12.1943    -0.4723 C.3     
  24 C24           -4.8967   -11.2271    -0.9217 C.3     
  25 H25           -3.9238   -11.7072    -0.8171 H       
  26 O26           -4.9371   -10.0510    -0.1110 O.3     
  27 C27           -3.3350    -7.1510    -5.3581 C.ar    
  28 N28           -4.2898    -6.8130    -6.2149 N.ar    
  29 C29           -4.1027    -5.8699    -7.1143 C.ar    
  30 C30           -2.8981    -5.1908    -7.2021 C.ar    
  31 C31           -1.8698    -5.5057    -6.3313 C.ar    
  32 C32           -2.0891    -6.5015    -5.3839 C.ar    
  33 C33            0.0459    -4.1915    -3.6660 C.ar    
  34 N34            0.0309    -3.1486    -2.8603 N.ar    
  35 H35            1.0048     1.8381     0.0023 H       
  36 H36           -0.5450     1.8219    -0.8730 H       
  37 H37           -0.5280     1.8123     0.9069 H       
  38 H38           -0.0015    -0.4495    -2.1196 H       
  39 H39            0.0482    -2.9447     1.3768 H       
  40 H40            0.0563    -4.6702     0.1101 H       
  41 H41            0.0753    -6.6656    -1.3682 H       
  42 H42            0.5806    -6.3903    -5.0188 H       
  43 H43            0.5937    -7.4925    -3.6212 H       
  44 H44           -1.6105    -8.6082    -2.9159 H       
  45 H45           -3.2118    -9.9185    -2.3675 H       
  46 H46           -5.2394   -11.8322    -4.2972 H       
  47 H47           -4.1059   -12.5844    -3.1494 H       
  48 H48           -7.1488   -12.5913    -2.9092 H       
  49 H49           -6.1450   -13.9686    -3.4230 H       
  50 H50           -6.7320   -14.1425    -1.0201 H       
  51 H51           -4.9775   -13.9336    -1.2357 H       
  52 H52           -6.9667   -11.7141    -0.5769 H       
  53 H53           -5.8331   -12.4664     0.5709 H       
  54 H54           -4.8014   -10.2183     0.8317 H       
  55 H55           -4.9025    -5.6212    -7.7961 H       
  56 H56           -2.7624    -4.4202    -7.9465 H       
  57 H57           -0.9228    -4.9891    -6.3827 H       
  58 H58            0.0432    -4.0388    -4.7351 H       
@<TRIPOS>BOND
   1    1    2 1
   2    1   35 1
   3    1   36 1
   4    1   37 1
   5    2    6 1
   6    2    3 1
   7    3    4 2
   8    3   38 1
   9    4    5 1
  10    4    7 1
  11    5    6 2
  12    5   39 1
  13    7   34 ar
  14    7    8 ar
  15    8    9 ar
  16    8   40 1
  17    9   10 ar
  18    9   41 1
  19   10   11 1
  20   10   33 ar
  21   11   12 1
  22   11   42 1
  23   11   43 1
  24   12   32 1
  25   12   13 1
  26   13   14 2
  27   13   44 1
  28   14   15 1
  29   14   27 1
  30   15   16 2
  31   15   17 am
  32   17   18 1
  33   17   45 1
  34   18   19 1
  35   18   24 1
  36   18   20 1
  37   20   21 1
  38   20   46 1
  39   20   47 1
  40   21   22 1
  41   21   48 1
  42   21   49 1
  43   22   23 1
  44   22   50 1
  45   22   51 1
  46   23   24 1
  47   23   52 1
  48   23   53 1
  49   24   25 1
  50   24   26 1
  51   26   54 1
  52   27   32 ar
  53   27   28 ar
  54   28   29 ar
  55   29   30 ar
  56   29   55 1
  57   30   31 ar
  58   30   56 1
  59   31   32 ar
  60   31   57 1
  61   33   34 ar
  62   33   58 1

#	End of record

