#	Name: ASD01885427
#	Creating user name:	WinNT
#	Creation time:	15. 06. 2019 19:49

#	Modifying user name:	WinNT
#	Modification time:	15. 06. 2019 19:49

#	Program:	/corina/corina34_cracker 3.40 0067  02.08.2006

@<TRIPOS>MOLECULE
ASD01885427
  41   43    0    0    0
SMALL
NO_CHARGES


@<TRIPOS>ATOM
   1 C1            -0.2579     2.0394     0.4591 C.ar    
   2 C2            -0.4493     0.6589     0.5395 C.ar    
   3 N3            -1.6656     0.0723     0.6619 N.2     
   4 C4            -2.7372     0.4037     0.0370 C.2     
   5 C5            -2.7684     1.5633    -0.9236 C.3     
   6 C6            -2.4604     2.8214    -0.1516 C.2     
   7 N7            -1.2949     2.9639     0.4782 N.am    
   8 C8             1.0348     2.5443     0.3472 C.ar    
   9 C9             2.1293     1.6833     0.3099 C.ar    
  10 C10            1.9284     0.3015     0.3855 C.ar    
  11 C11            0.6670    -0.1977     0.4978 C.ar    
  12 C12           -3.9682    -0.3710     0.2652 C.ar    
  13 O13           -3.2815     3.7129    -0.1048 O.2     
  14 C14           -3.9306    -1.5365     1.0381 C.ar    
  15 C15           -5.0843    -2.2634     1.2525 C.ar    
  16 C16           -6.2825    -1.8468     0.7069 C.ar    
  17 C17           -6.3359    -0.6844    -0.0675 C.ar    
  18 C18           -5.1775     0.0585    -0.2843 C.ar    
  19 C19           -7.5798    -0.2548    -0.6320 C.1     
  20 N20           -8.5667     0.0859    -1.0798 N.1     
  21 C21            3.4965     2.2277     0.1906 C.2     
  22 O22            4.4032     1.7413     0.8384 O.2     
  23 N23            3.7395     3.2638    -0.6364 N.am    
  24 C24            5.0726     3.8696    -0.6794 C.3     
  25 C25            2.6704     3.7841    -1.4923 C.3     
  26 H26           -2.0194     1.4166    -1.7019 H       
  27 H27           -3.7578     1.6412    -1.3744 H       
  28 H28           -1.1602     3.7751     0.9926 H       
  29 H29            1.1902     3.6114     0.2885 H       
  30 H30            2.7739    -0.3697     0.3543 H       
  31 H31            0.5206    -1.2662     0.5554 H       
  32 H32           -2.9969    -1.8684     1.4676 H       
  33 H33           -5.0497    -3.1626     1.8496 H       
  34 H34           -7.1809    -2.4210     0.8788 H       
  35 H35           -5.2133     0.9576    -0.8816 H       
  36 H36            5.6776     3.3635    -1.4318 H       
  37 H37            4.9838     4.9255    -0.9348 H       
  38 H38            5.5484     3.7705     0.2962 H       
  39 H39            1.7892     3.1493    -1.3995 H       
  40 H40            2.4207     4.7996    -1.1849 H       
  41 H41            3.0059     3.7906    -2.5294 H       
@<TRIPOS>BOND
   1    1    2 ar
   2    1    8 ar
   3    1    7 1
   4    2    3 1
   5    2   11 ar
   6    3    4 2
   7    4    5 1
   8    4   12 1
   9    5    6 1
  10    5   26 1
  11    5   27 1
  12    6    7 am
  13    6   13 2
  14    7   28 1
  15    8    9 ar
  16    8   29 1
  17    9   10 ar
  18    9   21 1
  19   10   11 ar
  20   10   30 1
  21   11   31 1
  22   12   14 ar
  23   12   18 ar
  24   14   15 ar
  25   14   32 1
  26   15   16 ar
  27   15   33 1
  28   16   17 ar
  29   16   34 1
  30   17   18 ar
  31   17   19 1
  32   18   35 1
  33   19   20 3
  34   21   22 2
  35   21   23 am
  36   23   24 1
  37   23   25 1
  38   24   36 1
  39   24   37 1
  40   24   38 1
  41   25   39 1
  42   25   40 1
  43   25   41 1

#	End of record

