#	Name: ASD01940517
#	Creating user name:	WinNT
#	Creation time:	15. 06. 2019 20:12

#	Modifying user name:	WinNT
#	Modification time:	15. 06. 2019 20:12

#	Program:	/corina/corina34_cracker 3.40 0067  02.08.2006

@<TRIPOS>MOLECULE
ASD01940517
  58   61    0    0    0
SMALL
NO_CHARGES


@<TRIPOS>ATOM
   1 C1             0.7334     1.4149    -1.1448 C.ar    
   2 C2             0.7635     0.0087    -1.1495 C.ar    
   3 C3             1.1737    -0.6729     0.0124 C.ar    
   4 C4             1.5368     0.0977     1.1316 C.ar    
   5 C5             1.4758     1.4942     1.0447 C.ar    
   6 N6             1.0886     2.0941    -0.0561 N.ar    
   7 N7             0.0624     0.6431    -3.1405 N.2     
   8 N8             0.2978     1.7962    -2.3830 N.pl3   
   9 C9             0.3373    -0.4125    -2.4301 C.2     
  10 C10            1.9741    -0.5543     2.3768 C.2     
  11 O11            1.9797    -1.7679     2.4583 O.2     
  12 N12            2.3684     0.1934     3.4265 N.am    
  13 O13            2.7891    -0.4338     4.6243 O.3     
  14 C14            3.1788     0.4790     5.6525 C.3     
  15 C15            3.6118    -0.3049     6.8930 C.3     
  16 C16            3.9098     0.6700     8.0340 C.3     
  17 O17            4.7871    -1.0604     6.5928 O.3     
  18 C18            0.1094     3.1756    -2.8390 C.3     
  19 C19            1.3876     3.6788    -3.4586 C.ar    
  20 C20            1.6132     3.5066    -4.8118 C.ar    
  21 C21            2.7841     3.9670    -5.3822 C.ar    
  22 C22            3.7341     4.6026    -4.5960 C.ar    
  23 C23            3.5054     4.7742    -3.2384 C.ar    
  24 C24            2.3304     4.3170    -2.6739 C.ar    
  25 O25            4.8870     5.0560    -5.1546 O.3     
  26 C26            5.8197     5.7007    -4.2848 C.3     
  27 N27            1.2177    -2.0518     0.0519 N.pl3   
  28 C28            0.1291    -2.7723     0.5551 C.ar    
  29 C29            0.1212    -4.1619     0.4869 C.ar    
  30 C30           -0.9562    -4.8701     0.9857 C.ar    
  31 C31           -2.0250    -4.1977     1.5518 C.ar    
  32 C32           -2.0191    -2.8165     1.6204 C.ar    
  33 C33           -0.9430    -2.1027     1.1286 C.ar    
  34 I34           -3.6562    -5.2746     2.3059 I       
  35 F35            1.1646    -4.8182    -0.0662 F       
  36 H36            1.7537     2.0898     1.9016 H       
  37 H37            0.2482    -1.4368    -2.7606 H       
  38 H38            2.3639     1.1612     3.3615 H       
  39 H39            4.0099     1.0898     5.3002 H       
  40 H40            2.3363     1.1227     5.9053 H       
  41 H41            2.8117    -0.9816     7.1929 H       
  42 H42            3.0134     1.2462     8.2629 H       
  43 H43            4.2184     0.1115     8.9177 H       
  44 H44            4.7100     1.3466     7.7341 H       
  45 H45            5.5415    -0.5215     6.3180 H       
  46 H46           -0.6903     3.2076    -3.5790 H       
  47 H47           -0.1557     3.8059    -1.9902 H       
  48 H48            0.8735     3.0114    -5.4234 H       
  49 H49            2.9600     3.8319    -6.4392 H       
  50 H50            4.2435     5.2687    -2.6243 H       
  51 H51            2.1498     4.4546    -1.6181 H       
  52 H52            5.3504     6.5740    -3.8320 H       
  53 H53            6.1266     5.0065    -3.5025 H       
  54 H54            6.6936     6.0131    -4.8565 H       
  55 H55            2.0034    -2.5214    -0.2693 H       
  56 H56           -0.9640    -5.9488     0.9332 H       
  57 H57           -2.8551    -2.2951     2.0626 H       
  58 H58           -0.9378    -1.0243     1.1869 H       
@<TRIPOS>BOND
   1    1    2 ar
   2    1    6 ar
   3    1    8 1
   4    2    3 ar
   5    2    9 1
   6    3    4 ar
   7    3   27 1
   8    4    5 ar
   9    4   10 1
  10    5    6 ar
  11    5   36 1
  12    7    8 1
  13    7    9 2
  14    8   18 1
  15    9   37 1
  16   10   11 2
  17   10   12 am
  18   12   13 1
  19   12   38 1
  20   13   14 1
  21   14   15 1
  22   14   39 1
  23   14   40 1
  24   15   16 1
  25   15   17 1
  26   15   41 1
  27   16   42 1
  28   16   43 1
  29   16   44 1
  30   17   45 1
  31   18   19 1
  32   18   46 1
  33   18   47 1
  34   19   20 ar
  35   19   24 ar
  36   20   21 ar
  37   20   48 1
  38   21   22 ar
  39   21   49 1
  40   22   23 ar
  41   22   25 1
  42   23   24 ar
  43   23   50 1
  44   24   51 1
  45   25   26 1
  46   26   52 1
  47   26   53 1
  48   26   54 1
  49   27   28 1
  50   27   55 1
  51   28   29 ar
  52   28   33 ar
  53   29   30 ar
  54   29   35 1
  55   30   31 ar
  56   30   56 1
  57   31   32 ar
  58   31   34 1
  59   32   33 ar
  60   32   57 1
  61   33   58 1

#	End of record

