#	Name: ASD01811728
#	Creating user name:	WinNT
#	Creation time:	15. 06. 2019 19:27

#	Modifying user name:	WinNT
#	Modification time:	15. 06. 2019 19:27

#	Program:	/corina/corina34_cracker 3.40 0067  02.08.2006

@<TRIPOS>MOLECULE
ASD01811728
  60   64    0    0    0
SMALL
NO_CHARGES


@<TRIPOS>ATOM
   1 C1            -0.0167     1.3805     0.0096 C.ar    
   2 C2             0.0021    -0.0041     0.0020 C.ar    
   3 C3             1.2075    -0.6836    -0.0127 C.ar    
   4 C4             2.3988     0.0118    -0.0203 C.ar    
   5 C5             2.3881     1.4079    -0.0132 C.ar    
   6 C6             1.1658     2.0836     0.0021 C.ar    
   7 C7            -1.2939    -0.7731     0.0103 C.3     
   8 C8             1.2188    -2.1905    -0.0199 C.3     
   9 C9             1.0853    -2.6871    -1.4364 C.ar    
  10 C10            2.2178    -2.9047    -2.2001 C.ar    
  11 C11            2.1011    -3.3599    -3.4979 C.ar    
  12 C12            0.8399    -3.6002    -4.0383 C.ar    
  13 C13           -0.2974    -3.3794    -3.2649 C.ar    
  14 C14           -0.1692    -2.9291    -1.9664 C.ar    
  15 C15            0.7083    -4.0894    -5.4340 C.2     
  16 C16           -0.0578    -5.1915    -5.8608 C.2     
  17 N17            0.0794    -5.3043    -7.1554 N.2     
  18 N18            0.9315    -4.2873    -7.6027 N.pl3   
  19 C19            1.3029    -3.5496    -6.5369 C.2     
  20 C20            1.3440    -4.0605    -8.9900 C.3     
  21 C21           -0.8904    -6.0852    -4.9782 C.3     
  22 C22            3.4708     2.4102    -0.0183 C.2     
  23 N23            2.9565     3.6521    -0.0072 N.am    
  24 C24            1.4923     3.5561     0.0064 C.3     
  25 O25            4.6581     2.1501    -0.0300 O.2     
  26 C26            3.7301     4.8962    -0.0086 C.3     
  27 C27            3.9849     5.3366    -1.4515 C.3     
  28 O28            2.7472     5.6988    -2.0748 O.3     
  29 C29            2.7745     7.0847    -2.4514 C.3     
  30 C30            4.2764     7.4316    -2.6087 C.3     
  31 C31            4.8964     6.5826    -1.4655 C.3     
  32 H32           -0.9590     1.9081     0.0170 H       
  33 H33            3.3374    -0.5224    -0.0314 H       
  34 H34           -1.6162    -0.9530    -1.0154 H       
  35 H35           -1.1473    -1.7267     0.5176 H       
  36 H36           -2.0556    -0.1960     0.5345 H       
  37 H37            2.1570    -2.5488     0.4038 H       
  38 H38            0.3854    -2.5629     0.5758 H       
  39 H39            3.1951    -2.7177    -1.7802 H       
  40 H40            2.9861    -3.5291    -4.0934 H       
  41 H41           -1.2775    -3.5642    -3.6791 H       
  42 H42           -1.0503    -2.7576    -1.3659 H       
  43 H43            1.9579    -2.6911    -6.5526 H       
  44 H44            0.6367    -3.3870    -9.4739 H       
  45 H45            2.3386    -3.6149    -9.0051 H       
  46 H46            1.3636    -5.0110    -9.5232 H       
  47 H47           -1.9011    -5.6837    -4.9046 H       
  48 H48           -0.9276    -7.0867    -5.4070 H       
  49 H49           -0.4448    -6.1318    -3.9845 H       
  50 H50            1.0774     4.0343    -0.8809 H       
  51 H51            1.0945     4.0255     0.9061 H       
  52 H52            3.1714     5.6720     0.5149 H       
  53 H53            4.6829     4.7321     0.4949 H       
  54 H54            4.4558     4.5261    -2.0077 H       
  55 H55            2.2516     7.2302    -3.3967 H       
  56 H56            2.3243     7.6979    -1.6708 H       
  57 H57            4.6530     7.1153    -3.5814 H       
  58 H58            4.4529     8.4952    -2.4481 H       
  59 H59            4.8424     7.1134    -0.5150 H       
  60 H60            5.9249     6.3083    -1.7000 H       
@<TRIPOS>BOND
   1    1    2 ar
   2    1    6 ar
   3    1   32 1
   4    2    3 ar
   5    2    7 1
   6    3    4 ar
   7    3    8 1
   8    4    5 ar
   9    4   33 1
  10    5    6 ar
  11    5   22 1
  12    6   24 1
  13    7   34 1
  14    7   35 1
  15    7   36 1
  16    8    9 1
  17    8   37 1
  18    8   38 1
  19    9   10 ar
  20    9   14 ar
  21   10   11 ar
  22   10   39 1
  23   11   12 ar
  24   11   40 1
  25   12   13 ar
  26   12   15 1
  27   13   14 ar
  28   13   41 1
  29   14   42 1
  30   15   16 1
  31   15   19 2
  32   16   17 2
  33   16   21 1
  34   17   18 1
  35   18   19 1
  36   18   20 1
  37   19   43 1
  38   20   44 1
  39   20   45 1
  40   20   46 1
  41   21   47 1
  42   21   48 1
  43   21   49 1
  44   22   23 am
  45   22   25 2
  46   23   24 1
  47   23   26 1
  48   24   50 1
  49   24   51 1
  50   26   27 1
  51   26   52 1
  52   26   53 1
  53   27   28 1
  54   27   31 1
  55   27   54 1
  56   28   29 1
  57   29   30 1
  58   29   55 1
  59   29   56 1
  60   30   31 1
  61   30   57 1
  62   30   58 1
  63   31   59 1
  64   31   60 1

#	End of record

