#	Name: ASD00171024
#	Creating user name:	WinNT
#	Creation time:	15. 06. 2019 18:32

#	Modifying user name:	WinNT
#	Modification time:	15. 06. 2019 18:32

#	Program:	/corina/corina34_cracker 3.40 0067  02.08.2006

@<TRIPOS>MOLECULE
ASD00171024
  50   53    0    0    0
SMALL
NO_CHARGES


@<TRIPOS>ATOM
   1 C1            -0.0646     1.2997    -0.0946 C.2     
   2 O2            -0.0388     0.0870    -0.1310 O.2     
   3 C3             1.1871     2.0595    -0.1127 C.ar    
   4 C4             1.1636     3.4716    -0.0705 C.ar    
   5 C5             2.3652     4.1792    -0.0886 C.ar    
   6 C6             3.5650     3.5005    -0.1474 C.ar    
   7 C7             3.5892     2.1122    -0.1894 C.ar    
   8 C8             2.4170     1.3921    -0.1663 C.ar    
   9 Cl9            5.0564     4.3887    -0.1696 Cl      
  10 C10           -0.8166     4.5934    -1.1171 C.2     
  11 C11           -0.1223     4.1920    -0.0083 C.2     
  12 C12           -0.7773     4.5448     1.2279 C.2     
  13 C13           -1.9249     5.1893     1.0720 C.2     
  14 S14           -2.2915     5.4140    -0.6300 S.3     
  15 C15           -0.2055     4.2086     2.5810 C.3     
  16 N16            0.8360     5.1845     2.9287 N.3     
  17 C17            1.2504     5.0355     4.3307 C.3     
  18 C18            2.3889     6.0136     4.6301 C.3     
  19 N19            1.9363     7.3855     4.3606 N.3     
  20 C20            1.5220     7.5344     2.9585 C.3     
  21 C21            0.3834     6.5564     2.6592 C.3     
  22 C22            2.9272     8.3138     4.6913 C.ar    
  23 C23            3.3024     8.4894     6.0185 C.ar    
  24 C24            4.2824     9.4083     6.3414 C.ar    
  25 C25            4.8895    10.1525     5.3461 C.ar    
  26 C26            4.5180     9.9803     4.0256 C.ar    
  27 C27            3.5432     9.0588     3.6947 C.ar    
  28 Cl28           2.5403     7.5560     7.2681 Cl      
  29 N29           -0.4132     4.3883    -2.4289 N.pl3   
  30 H30           -1.0108     1.8187    -0.0533 H       
  31 H31            2.3566     5.2587    -0.0570 H       
  32 H32            4.5356     1.5940    -0.2356 H       
  33 H33            2.4453     0.3128    -0.1940 H       
  34 H34           -2.5508     5.5303     1.8834 H       
  35 H35           -0.9981     4.2412     3.3287 H       
  36 H36            0.2277     3.2088     2.5543 H       
  37 H37            0.4051     5.2503     4.9845 H       
  38 H38            1.5930     4.0151     4.5022 H       
  39 H39            2.6784     5.9252     5.6772 H       
  40 H40            3.2441     5.7815     3.9953 H       
  41 H41            1.1793     8.5548     2.7870 H       
  42 H42            2.3672     7.3196     2.3047 H       
  43 H43            0.0940     6.6447     1.6121 H       
  44 H44           -0.4717     6.7885     3.2940 H       
  45 H45            4.5744     9.5458     7.3721 H       
  46 H46            5.6553    10.8701     5.6011 H       
  47 H47            4.9940    10.5634     3.2511 H       
  48 H48            3.2572     8.9217     2.6624 H       
  49 H49            0.4204     3.9281    -2.6137 H       
  50 H50           -0.9649     4.7052    -3.1611 H       
@<TRIPOS>BOND
   1    1    2 2
   2    1    3 1
   3    1   30 1
   4    3    4 ar
   5    3    8 ar
   6    4    5 ar
   7    4   11 1
   8    5    6 ar
   9    5   31 1
  10    6    7 ar
  11    6    9 1
  12    7    8 ar
  13    7   32 1
  14    8   33 1
  15   10   11 2
  16   10   14 1
  17   10   29 1
  18   11   12 1
  19   12   13 2
  20   12   15 1
  21   13   14 1
  22   13   34 1
  23   15   16 1
  24   15   35 1
  25   15   36 1
  26   16   17 1
  27   16   21 1
  28   17   18 1
  29   17   37 1
  30   17   38 1
  31   18   19 1
  32   18   39 1
  33   18   40 1
  34   19   20 1
  35   19   22 1
  36   20   21 1
  37   20   41 1
  38   20   42 1
  39   21   43 1
  40   21   44 1
  41   22   23 ar
  42   22   27 ar
  43   23   24 ar
  44   23   28 1
  45   24   25 ar
  46   24   45 1
  47   25   26 ar
  48   25   46 1
  49   26   27 ar
  50   26   47 1
  51   27   48 1
  52   29   49 1
  53   29   50 1

#	End of record

