#	Name: ASD03910093
#	Creating user name:	WinNT
#	Creation time:	15. 06. 2019 20:47

#	Modifying user name:	WinNT
#	Modification time:	15. 06. 2019 20:47

#	Program:	/corina/corina34_cracker 3.40 0067  02.08.2006

@<TRIPOS>MOLECULE
ASD03910093
  25   25    0    0    0
SMALL
NO_CHARGES


@<TRIPOS>ATOM
   1 C1             5.5102     2.4568     3.3507 C.ar    
   2 C2             5.8852     1.1419     3.5623 C.ar    
   3 C3             5.5674     0.1712     2.6290 C.ar    
   4 C4             4.8747     0.5133     1.4837 C.ar    
   5 C5             4.4974     1.8310     1.2700 C.ar    
   6 C6             4.8171     2.8028     2.2069 C.ar    
   7 O7             3.8163     2.1696     0.1436 O.3     
   8 C8             3.3592     3.5198     0.0431 C.3     
   9 Cl9            6.7562     0.7096     5.0004 Cl      
  10 C10            2.6105     3.7077    -1.2779 C.3     
  11 C11            2.4193     3.8283     1.2103 C.3     
  12 C12            4.5402     4.4547     0.0885 C.2     
  13 O13            5.6587     4.0103     0.1959 O.2     
  14 O14            4.3497     5.7810     0.0096 O.3     
  15 H15            5.7555     3.2124     4.0823 H       
  16 H16            5.8613    -0.8546     2.7957 H       
  17 H17            4.6274    -0.2446     0.7551 H       
  18 H18            4.5242     3.8292     2.0422 H       
  19 H19            1.7937     2.9885    -1.3382 H       
  20 H20            2.2079     4.7195    -1.3266 H       
  21 H21            3.2964     3.5492    -2.1101 H       
  22 H22            2.9064     3.5634     2.1488 H       
  23 H23            2.1799     4.8917     1.2127 H       
  24 H24            1.5021     3.2496     1.1010 H       
  25 H25            5.1378     6.3405     0.0430 H       
@<TRIPOS>BOND
   1    1    2 ar
   2    1    6 ar
   3    1   15 1
   4    2    3 ar
   5    2    9 1
   6    3    4 ar
   7    3   16 1
   8    4    5 ar
   9    4   17 1
  10    5    6 ar
  11    5    7 1
  12    6   18 1
  13    7    8 1
  14    8   10 1
  15    8   11 1
  16    8   12 1
  17   10   19 1
  18   10   20 1
  19   10   21 1
  20   11   22 1
  21   11   23 1
  22   11   24 1
  23   12   13 2
  24   12   14 1
  25   14   25 1

#	End of record

