#	Name: ASD01140082
#	Creating user name:	WinNT
#	Creation time:	15. 06. 2019 18:59

#	Modifying user name:	WinNT
#	Modification time:	15. 06. 2019 18:59

#	Program:	/corina/corina34_cracker 3.40 0067  02.08.2006

@<TRIPOS>MOLECULE
ASD01140082
  61   64    0    0    0
SMALL
NO_CHARGES


@<TRIPOS>ATOM
   1 C1            -0.3569     3.3556     0.7533 C.3     
   2 C2            -0.7455     1.8893     0.9345 C.3     
   3 C3             0.0402     1.2510     2.0752 C.3     
   4 C4             1.5463     1.4319     1.9110 C.3     
   5 C5             1.8979     2.9122     1.7488 C.3     
   6 C6             1.1526     3.4913     0.5526 C.3     
   7 C7             2.0591     0.5967     0.7423 C.3     
   8 C8             3.5776     0.7715     0.5990 C.3     
   9 C9             3.8376     2.2557     0.3298 C.3     
  10 C10            3.4166     3.0502     1.5649 C.3     
  11 C11            5.2385     2.5465    -0.0875 C.3     
  12 C12            6.0274     3.3699     0.9535 C.3     
  13 C13            5.3376     4.6904     1.1790 C.3     
  14 C14            3.8422     4.5040     1.4712 C.3     
  15 C15            6.2017     1.3759    -0.3323 C.3     
  16 C16            7.5419     2.1448    -0.5386 C.3     
  17 C17            7.4023     3.4677     0.2564 C.3     
  18 C18           -2.2215     1.8279     1.2758 C.2     
  19 C19            1.4989     3.6613     3.0276 C.3     
  20 C20            6.2616     2.6262     2.2658 C.3     
  21 C21            8.4890     3.5760     1.2909 C.2     
  22 C22            8.9036     4.9289     1.8096 C.3     
  23 O23            9.0293     2.5788     1.7058 O.2     
  24 H24            2.0344     1.0670     2.8294 H       
  25 O25           -0.5406     1.1745    -0.2835 O.3     
  26 C26           -3.0475     1.1754     0.4959 C.2     
  27 H27           -0.8629     3.7444    -0.1401 H       
  28 H28           -0.6876     3.9393     1.6078 H       
  29 H29           -0.2902     1.6669     3.0278 H       
  30 H30           -0.1827     0.1746     2.0921 H       
  31 H31            1.4383     2.9647    -0.3590 H       
  32 H32            1.4031     4.5490     0.4406 H       
  33 H33            1.8351    -0.4558     0.9168 H       
  34 H34            1.5907     0.9194    -0.1861 H       
  35 H35            4.0691     0.4703     1.5196 H       
  36 H36            3.9359     0.1769    -0.2369 H       
  37 H37            3.1688     2.5494    -0.5028 H       
  38 H38            3.8488     2.5958     2.4616 H       
  39 H39            5.2017     3.1372    -1.0318 H       
  40 H40            5.8099     5.2114     2.0241 H       
  41 H41            5.4590     5.3261     0.2915 H       
  42 H42            3.2642     4.9998     0.6800 H       
  43 H43            3.6152     5.0218     2.4127 H       
  44 H44            6.2559     0.6981     0.5072 H       
  45 H45            5.9301     0.8446    -1.2463 H       
  46 H46            8.3703     1.5567    -0.1505 H       
  47 H47            7.6847     2.3563    -1.5968 H       
  48 H48            7.4124     4.3218    -0.4127 H       
  49 H49           -2.5919     2.3220     2.1618 H       
  50 H50            2.0409     3.2449     3.8766 H       
  51 H51            1.7456     4.7177     2.9218 H       
  52 H52            0.4269     3.5532     3.1925 H       
  53 H53            6.9489     1.7974     2.0961 H       
  54 H54            6.6904     3.3094     2.9990 H       
  55 H55            5.3129     2.2409     2.6395 H       
  56 H56            8.0475     5.4175     2.2748 H       
  57 H57            9.6976     4.8078     2.5465 H       
  58 H58            9.2655     5.5397     0.9826 H       
  59 H59           -1.0570     1.5111    -1.0287 H       
  60 H60           -2.6771     0.6812    -0.3901 H       
  61 H61           -4.0989     1.1316     0.7390 H       
@<TRIPOS>BOND
   1    1    2 1
   2    1    6 1
   3    1   27 1
   4    1   28 1
   5    2    3 1
   6    2   18 1
   7    2   25 1
   8    3    4 1
   9    3   29 1
  10    3   30 1
  11    4    5 1
  12    4    7 1
  13    4   24 1
  14    5    6 1
  15    5   19 1
  16    5   10 1
  17    6   31 1
  18    6   32 1
  19    7    8 1
  20    7   33 1
  21    7   34 1
  22    8    9 1
  23    8   35 1
  24    8   36 1
  25    9   10 1
  26    9   11 1
  27    9   37 1
  28   10   14 1
  29   10   38 1
  30   11   12 1
  31   11   15 1
  32   11   39 1
  33   12   13 1
  34   12   20 1
  35   12   17 1
  36   13   14 1
  37   13   40 1
  38   13   41 1
  39   14   42 1
  40   14   43 1
  41   15   16 1
  42   15   44 1
  43   15   45 1
  44   16   17 1
  45   16   46 1
  46   16   47 1
  47   17   21 1
  48   17   48 1
  49   18   26 2
  50   18   49 1
  51   19   50 1
  52   19   51 1
  53   19   52 1
  54   20   53 1
  55   20   54 1
  56   20   55 1
  57   21   22 1
  58   21   23 2
  59   22   56 1
  60   22   57 1
  61   22   58 1
  62   25   59 1
  63   26   60 1
  64   26   61 1

#	End of record

