#	Name: ASD01940346
#	Creating user name:	WinNT
#	Creation time:	15. 06. 2019 20:12

#	Modifying user name:	WinNT
#	Modification time:	15. 06. 2019 20:12

#	Program:	/corina/corina34_cracker 3.40 0067  02.08.2006

@<TRIPOS>MOLECULE
ASD01940346
  36   38    0    0    0
SMALL
NO_CHARGES


@<TRIPOS>ATOM
   1 C1             2.1864    -1.1830    -4.5834 C.ar    
   2 C2             1.4299    -1.5799    -3.4954 C.ar    
   3 C3             1.9064    -1.3835    -2.2122 C.ar    
   4 C4             3.1474    -0.7863    -2.0175 C.ar    
   5 C5             3.9030    -0.3897    -3.1128 C.ar    
   6 C6             3.4209    -0.5889    -4.3919 C.ar    
   7 N7             3.6330    -0.5854    -0.7211 N.pl3   
   8 C8             4.8284     0.0973    -0.5244 C.ar    
   9 C9             4.8351     1.4846    -0.4423 C.ar    
  10 C10            6.0270     2.1607    -0.2465 C.ar    
  11 C11            7.2202     1.4601    -0.1310 C.ar    
  12 C12            7.2304     0.0857    -0.2101 C.ar    
  13 C13            6.0342    -0.6119    -0.4018 C.ar    
  14 C14            6.0394    -2.0830    -0.4810 C.2     
  15 O15            5.0292    -2.6781    -0.8040 O.2     
  16 N16            7.1636    -2.7692    -0.1955 N.am    
  17 C17            7.5951    -4.1732    -0.2704 C.3     
  18 C18            8.5756    -3.8763     0.8727 C.3     
  19 C19            8.5010    -2.4427     0.3220 C.3     
  20 O20            8.0187    -4.0365     2.1789 O.3     
  21 F21            6.0293     3.5094    -0.1677 F       
  22 F22            3.6783     2.1734    -0.5542 F       
  23 F23            1.1676    -1.7707    -1.1495 F       
  24 I24            1.4646    -1.4901    -6.5261 I       
  25 H25            0.4663    -2.0431    -3.6482 H       
  26 H26            4.8668     0.0746    -2.9648 H       
  27 H27            4.0087    -0.2803    -5.2437 H       
  28 H28            3.1359    -0.9223     0.0407 H       
  29 H29            8.1453     1.9963     0.0214 H       
  30 H30            8.1617    -0.4537    -0.1202 H       
  31 H31            6.8135    -4.8826     0.0015 H       
  32 H32            8.0871    -4.4266    -1.2094 H       
  33 H33            9.5521    -4.3468     0.7575 H       
  34 H34            9.2317    -2.2399    -0.4609 H       
  35 H35            8.4911    -1.6778     1.0985 H       
  36 H36            8.6389    -3.8487     2.8967 H       
@<TRIPOS>BOND
   1    1    2 ar
   2    1    6 ar
   3    1   24 1
   4    2    3 ar
   5    2   25 1
   6    3    4 ar
   7    3   23 1
   8    4    5 ar
   9    4    7 1
  10    5    6 ar
  11    5   26 1
  12    6   27 1
  13    7    8 1
  14    7   28 1
  15    8    9 ar
  16    8   13 ar
  17    9   10 ar
  18    9   22 1
  19   10   11 ar
  20   10   21 1
  21   11   12 ar
  22   11   29 1
  23   12   13 ar
  24   12   30 1
  25   13   14 1
  26   14   15 2
  27   14   16 am
  28   16   17 1
  29   16   19 1
  30   17   18 1
  31   17   31 1
  32   17   32 1
  33   18   19 1
  34   18   20 1
  35   18   33 1
  36   19   34 1
  37   19   35 1
  38   20   36 1

#	End of record

