#	Name: ASD01870586
#	Creating user name:	WinNT
#	Creation time:	15. 06. 2019 19:39

#	Modifying user name:	WinNT
#	Modification time:	15. 06. 2019 19:39

#	Program:	/corina/corina34_cracker 3.40 0067  02.08.2006

@<TRIPOS>MOLECULE
ASD01870586
  41   44    0    0    0
SMALL
NO_CHARGES


@<TRIPOS>ATOM
   1 C1            -0.0107     1.3950     0.0268 C.ar    
   2 C2             0.0041     0.0062     0.0172 C.ar    
   3 C3             1.2067    -0.6710    -0.0036 C.ar    
   4 C4             2.4020     0.0363    -0.0150 C.ar    
   5 C5             2.3872     1.4252    -0.0054 C.ar    
   6 C6             1.1845     2.1024     0.0155 C.ar    
   7 N7             3.6216    -0.6505    -0.0357 N.am    
   8 C8             4.6702    -0.1416    -0.7125 C.2     
   9 O9             4.5307     0.8633    -1.3848 O.2     
  10 N10           -1.2305     2.0820     0.0421 N.am    
  11 C11           -2.4489     1.5141     0.0493 C.2     
  12 C12           -3.4967     2.5511     0.0653 C.ar    
  13 C13           -1.3899     3.5406     0.0593 C.3     
  14 C14           -5.6393     3.6409     0.0913 C.ar    
  15 C15           -5.0122     4.8738     0.0936 C.ar    
  16 C16           -3.6293     4.9525     0.0837 C.ar    
  17 C17           -2.8753     3.8024     0.0678 C.ar    
  18 C18           -4.8925     2.4792     0.0772 C.ar    
  19 O19           -2.6570     0.3163     0.0428 O.2     
  20 C20            5.9789    -0.7986    -0.6388 C.2     
  21 O21            6.2670    -1.9155     0.0610 O.3     
  22 C22            7.1184    -0.3906    -1.2713 C.2     
  23 C23            8.1232    -1.3068    -0.9232 C.2     
  24 C24            7.5595    -2.2241    -0.1066 C.2     
  25 C25            7.2679     0.8101    -2.1696 C.3     
  26 Cl26          -5.6850     0.9346     0.0738 Cl      
  27 H27           -0.9253    -0.5438     0.0264 H       
  28 H28            1.2183    -1.7509    -0.0107 H       
  29 H29            3.3166     1.9752    -0.0139 H       
  30 H30            1.1730     3.1823     0.0226 H       
  31 H31            3.7121    -1.4926     0.4371 H       
  32 H32           -0.9287     3.9573     0.9547 H       
  33 H33           -0.9399     3.9771    -0.8324 H       
  34 H34           -6.7179     3.5865     0.0991 H       
  35 H35           -5.6027     5.7780     0.1043 H       
  36 H36           -3.1433     5.9169     0.0852 H       
  37 H37            9.1527    -1.2843    -1.2488 H       
  38 H38            8.0673    -3.0680     0.3367 H       
  39 H39            7.5484     1.6778    -1.5726 H       
  40 H40            8.0416     0.6143    -2.9120 H       
  41 H41            6.3218     1.0066    -2.6739 H       
@<TRIPOS>BOND
   1    1    2 ar
   2    1    6 ar
   3    1   10 1
   4    2    3 ar
   5    2   27 1
   6    3    4 ar
   7    3   28 1
   8    4    5 ar
   9    4    7 1
  10    5    6 ar
  11    5   29 1
  12    6   30 1
  13    7    8 am
  14    7   31 1
  15    8    9 2
  16    8   20 1
  17   10   11 am
  18   10   13 1
  19   11   12 1
  20   11   19 2
  21   12   18 ar
  22   12   17 ar
  23   13   17 1
  24   13   32 1
  25   13   33 1
  26   14   15 ar
  27   14   18 ar
  28   14   34 1
  29   15   16 ar
  30   15   35 1
  31   16   17 ar
  32   16   36 1
  33   18   26 1
  34   20   22 2
  35   20   21 1
  36   21   24 1
  37   22   23 1
  38   22   25 1
  39   23   24 2
  40   23   37 1
  41   24   38 1
  42   25   39 1
  43   25   40 1
  44   25   41 1

#	End of record

