#	Name: ASD05303001
#	Creating user name:	WinNT
#	Creation time:	15. 06. 2019 20:58

#	Modifying user name:	WinNT
#	Modification time:	15. 06. 2019 20:58

#	Program:	/corina/corina34_cracker 3.40 0067  02.08.2006

@<TRIPOS>MOLECULE
ASD05303001
  68   73    0    0    0
SMALL
NO_CHARGES


@<TRIPOS>ATOM
   1 C1             5.7949     2.3501     6.8360 C.ar    
   2 C2             6.1582     1.0346     7.0606 C.ar    
   3 C3             6.1862     0.1261     6.0171 C.ar    
   4 C4             5.8469     0.5382     4.7327 C.ar    
   5 C5             5.4762     1.8766     4.5042 C.ar    
   6 C6             5.4536     2.7766     5.5645 C.ar    
   7 C7             5.8729    -0.4172     3.6038 C.2     
   8 C8             5.8075     0.0970     2.2264 C.ar    
   9 C9             5.4336     1.4395     1.9972 C.ar    
  10 C10            5.1145     2.3132     3.1381 C.2     
  11 C11            6.1122    -0.7292     1.1403 C.ar    
  12 C12            6.0428    -0.2193    -0.1603 C.ar    
  13 C13            5.6806     1.0769    -0.3814 C.ar    
  14 C14            5.3715     1.9240     0.6875 C.ar    
  15 O15            4.5599     3.3807     2.9596 O.2     
  16 O16            5.9479    -1.6133     3.8114 O.2     
  17 N17            5.0043     3.2392     0.4491 N.pl3   
  18 N18            6.4818    -2.0481     1.3517 N.pl3   
  19 S19            5.6020     1.6908    -2.0311 S.o2    
  20 O20            4.2215     1.5475    -2.4666 O.co2   
  21 O21            6.0166     3.0842    -1.9804 O.co2   
  22 O22            6.5118     0.8790    -2.8245 O.co2   
  23 C23            7.7907    -2.3542     1.7383 C.ar    
  24 C24            8.1693    -3.6780     1.9217 C.ar    
  25 C25            9.4614    -3.9800     2.3028 C.ar    
  26 C26           10.3826    -2.9603     2.5029 C.ar    
  27 C27           10.0041    -1.6363     2.3200 C.ar    
  28 C28            8.7141    -1.3344     1.9334 C.ar    
  29 S29            9.9415    -5.6592     2.5360 S.o2    
  30 O30           10.5546    -6.0968     1.2916 O.co2   
  31 O31           10.8837    -5.6760     3.6442 O.co2   
  32 O32            8.7292    -6.4039     2.8388 O.co2   
  33 N33           11.6932    -3.2667     2.8896 N.pl3   
  34 C34           12.4530    -2.3279     3.5593 C.ar    
  35 N35           11.9069    -1.1738     3.9346 N.ar    
  36 C36           12.6341    -0.2741     4.5766 C.ar    
  37 N37           13.9057    -0.5181     4.8473 N.ar    
  38 C38           14.4577    -1.6705     4.4747 C.ar    
  39 N39           13.7288    -2.5783     3.8346 N.ar    
  40 N40           15.7857    -1.9245     4.7577 N.pl3   
  41 C41           16.5201    -1.0226     5.5341 C.ar    
  42 C42           15.8676    -0.1743     6.4190 C.ar    
  43 C43           16.5960     0.7152     7.1848 C.ar    
  44 C44           17.9731     0.7617     7.0706 C.ar    
  45 C45           18.6260    -0.0815     6.1898 C.ar    
  46 C46           17.9043    -0.9773     5.4259 C.ar    
  47 S47           18.7369    -2.0515     4.3046 S.o2    
  48 O48           18.9389    -3.3116     5.0027 O.co2   
  49 O49           17.8702    -2.2020     3.1461 O.co2   
  50 O50           19.9963    -1.4080     3.9642 O.co2   
  51 Cl51          11.9179     1.2302     5.0645 Cl      
  52 H52            5.7731     3.0484     7.6595 H       
  53 H53            6.4223     0.7141     8.0576 H       
  54 H54            6.4710    -0.8996     6.1994 H       
  55 H55            5.1707     3.8051     5.3960 H       
  56 H56            6.2789    -0.8586    -0.9982 H       
  57 H57            4.5922     3.4823    -0.3946 H       
  58 H58            5.1595     3.9164     1.1261 H       
  59 H59            5.8328    -2.7589     1.2315 H       
  60 H60            7.4528    -4.4711     1.7664 H       
  61 H61           10.7206    -0.8434     2.4760 H       
  62 H62            8.4198    -0.3050     1.7912 H       
  63 H63           12.0674    -4.1384     2.6869 H       
  64 H64           16.2089    -2.7285     4.4180 H       
  65 H65           14.7919    -0.2096     6.5082 H       
  66 H66           16.0893     1.3752     7.8732 H       
  67 H67           18.5403     1.4583     7.6702 H       
  68 H68           19.7017    -0.0422     6.1025 H       
@<TRIPOS>BOND
   1    1    2 ar
   2    1    6 ar
   3    1   52 1
   4    2    3 ar
   5    2   53 1
   6    3    4 ar
   7    3   54 1
   8    4    5 ar
   9    4    7 1
  10    5    6 ar
  11    5   10 1
  12    6   55 1
  13    7    8 1
  14    7   16 2
  15    8    9 ar
  16    8   11 ar
  17    9   10 1
  18    9   14 ar
  19   10   15 2
  20   11   12 ar
  21   11   18 1
  22   12   13 ar
  23   12   56 1
  24   13   14 ar
  25   13   19 1
  26   14   17 1
  27   17   57 1
  28   17   58 1
  29   18   23 1
  30   18   59 1
  31   19   20 ar
  32   19   21 ar
  33   19   22 ar
  34   23   24 ar
  35   23   28 ar
  36   24   25 ar
  37   24   60 1
  38   25   26 ar
  39   25   29 1
  40   26   27 ar
  41   26   33 1
  42   27   28 ar
  43   27   61 1
  44   28   62 1
  45   29   30 ar
  46   29   31 ar
  47   29   32 ar
  48   33   34 1
  49   33   63 1
  50   34   35 ar
  51   34   39 ar
  52   35   36 ar
  53   36   37 ar
  54   36   51 1
  55   37   38 ar
  56   38   39 ar
  57   38   40 1
  58   40   41 1
  59   40   64 1
  60   41   42 ar
  61   41   46 ar
  62   42   43 ar
  63   42   65 1
  64   43   44 ar
  65   43   66 1
  66   44   45 ar
  67   44   67 1
  68   45   46 ar
  69   45   68 1
  70   46   47 1
  71   47   48 ar
  72   47   49 ar
  73   47   50 ar

#	End of record

