#	Name: ASD03093003
#	Creating user name:	WinNT
#	Creation time:	15. 06. 2019 20:33

#	Modifying user name:	WinNT
#	Modification time:	15. 06. 2019 20:33

#	Program:	/corina/corina34_cracker 3.40 0067  02.08.2006

@<TRIPOS>MOLECULE
ASD03093003
  60   63    0    0    0
SMALL
NO_CHARGES


@<TRIPOS>ATOM
   1 C1            -0.0178     1.4608     0.0101 C.3     
   2 N2             0.0021    -0.0041     0.0020 N.am    
   3 C3            -1.1558    -0.6938     0.0094 C.2     
   4 C4            -1.1354    -2.2006     0.0011 C.3     
   5 O5            -2.2142    -0.1017     0.0227 O.2     
   6 N6            -2.5098    -2.7077     0.0115 N.am    
   7 N7            -3.0862    -2.9303     1.1369 N.2     
   8 C8            -4.3070    -3.3809     1.2208 C.2     
   9 C9            -5.0504    -3.6443     0.0583 C.2     
  10 C10           -4.4615    -3.4163    -1.1529 C.2     
  11 C11           -3.1388    -2.9233    -1.1596 C.2     
  12 O12           -2.5680    -2.7032    -2.2159 O.2     
  13 C13           -5.2015    -3.6773    -2.4396 C.3     
  14 C14           -5.8385    -2.3991    -2.9208 C.2     
  15 C15           -5.2689    -1.4957    -3.7387 C.2     
  16 C16           -6.2137    -0.4610    -3.9273 C.2     
  17 C17           -7.3041    -0.7939    -3.2134 C.2     
  18 O18           -7.0732    -1.9716    -2.6105 O.3     
  19 C19           -4.9245    -3.6213     2.5743 C.3     
  20 C20           -3.8769    -3.3797     3.6629 C.3     
  21 C21           -4.5038    -3.6237     5.0371 C.3     
  22 C22           -5.6794    -2.6655     5.2388 C.3     
  23 C23           -6.7270    -2.9071     4.1501 C.3     
  24 C24           -6.1001    -2.6631     2.7760 C.3     
  25 C25            1.4176     1.9904    -0.0008 C.3     
  26 C26            1.3972     3.4972     0.0075 C.ar    
  27 C27            1.3992     4.1815     1.2084 C.ar    
  28 C28            1.3800     5.5641     1.2176 C.ar    
  29 C29            1.3588     6.2631     0.0259 C.ar    
  30 C30            1.3571     5.5786    -1.1779 C.ar    
  31 C31            1.3821     4.1945    -1.1858 C.ar    
  32 F32            1.3363     6.2611    -2.3436 F       
  33 H33           -0.5450     1.8219    -0.8730 H       
  34 H34           -0.5280     1.8123     0.9069 H       
  35 H35            0.8486    -0.4776    -0.0086 H       
  36 H36           -0.6252    -2.5521    -0.8957 H       
  37 H37           -0.6082    -2.5617     0.8841 H       
  38 H38           -6.0618    -4.0180     0.1207 H       
  39 H39           -4.5029    -4.0412    -3.1930 H       
  40 H40           -5.9744    -4.4265    -2.2686 H       
  41 H41           -4.2796    -1.5501    -4.1684 H       
  42 H42           -6.0846     0.4267    -4.5289 H       
  43 H43           -8.2125    -0.2144    -3.1406 H       
  44 H44           -5.2799    -4.6500     2.6340 H       
  45 H45           -3.0394    -4.0623     3.5192 H       
  46 H46           -3.5215    -2.3510     3.6032 H       
  47 H47           -4.8593    -4.6524     5.0968 H       
  48 H48           -3.7576    -3.4516     5.8127 H       
  49 H49           -6.1260    -2.8393     6.2178 H       
  50 H50           -5.3240    -1.6368     5.1791 H       
  51 H51           -7.0824    -3.9358     4.2099 H       
  52 H52           -7.5645    -2.2244     4.2939 H       
  53 H53           -5.7447    -1.6344     2.7163 H       
  54 H54           -6.8463    -2.8352     2.0004 H       
  55 H55            1.9448     1.6293     0.8823 H       
  56 H56            1.9278     1.6388    -0.8976 H       
  57 H57            1.4155     3.6359     2.1403 H       
  58 H58            1.3813     6.0977     2.1565 H       
  59 H59            1.3430     7.3430     0.0333 H       
  60 H60            1.3808     3.6595    -2.1241 H       
@<TRIPOS>BOND
   1    1    2 1
   2    1   25 1
   3    1   33 1
   4    1   34 1
   5    2    3 am
   6    2   35 1
   7    3    4 1
   8    3    5 2
   9    4    6 1
  10    4   36 1
  11    4   37 1
  12    6    7 1
  13    6   11 am
  14    7    8 2
  15    8    9 1
  16    8   19 1
  17    9   10 2
  18    9   38 1
  19   10   11 1
  20   10   13 1
  21   11   12 2
  22   13   14 1
  23   13   39 1
  24   13   40 1
  25   14   15 2
  26   14   18 1
  27   15   16 1
  28   15   41 1
  29   16   17 2
  30   16   42 1
  31   17   18 1
  32   17   43 1
  33   19   20 1
  34   19   24 1
  35   19   44 1
  36   20   21 1
  37   20   45 1
  38   20   46 1
  39   21   22 1
  40   21   47 1
  41   21   48 1
  42   22   23 1
  43   22   49 1
  44   22   50 1
  45   23   24 1
  46   23   51 1
  47   23   52 1
  48   24   53 1
  49   24   54 1
  50   25   26 1
  51   25   55 1
  52   25   56 1
  53   26   27 ar
  54   26   31 ar
  55   27   28 ar
  56   27   57 1
  57   28   29 ar
  58   28   58 1
  59   29   30 ar
  60   29   59 1
  61   30   31 ar
  62   30   32 1
  63   31   60 1

#	End of record

