#	Name: ASD01150812
#	Creating user name:	WinNT
#	Creation time:	15. 06. 2019 19:05

#	Modifying user name:	WinNT
#	Modification time:	15. 06. 2019 19:05

#	Program:	/corina/corina34_cracker 3.40 0067  02.08.2006

@<TRIPOS>MOLECULE
ASD01150812
  51   52    0    0    0
SMALL
NO_CHARGES


@<TRIPOS>ATOM
   1 N1             0.1211     1.3754     0.0863 N.3     
   2 C2            -0.0192    -0.0759    -0.0879 C.3     
   3 C3             0.6959    -0.5086    -1.3699 C.3     
   4 C4             2.1760    -0.1276    -1.2764 C.3     
   5 C5             2.2929     1.3818    -1.0467 C.3     
   6 C6             1.5315     1.7596     0.2259 C.3     
   7 O7             0.5767    -1.9238    -1.5283 O.3     
   8 C8            -0.6688     1.8469     1.2316 C.3     
   9 C9            -0.3642     5.4685     0.6563 C.ar    
  10 N10           -0.5905     4.1833     0.4712 N.ar    
  11 C11           -0.4071     3.3145     1.4523 C.ar    
  12 C12            0.0286     3.7726     2.6859 C.ar    
  13 C13            0.2557     5.1307     2.8419 C.ar    
  14 N14            0.0505     5.9399     1.8150 N.ar    
  15 C15            0.7295     5.6789     4.1633 C.3     
  16 S16           -2.4330     1.5912     0.8957 S.3     
  17 C17           -2.7556     0.5870     3.4195 C.3     
  18 C18           -2.8477     0.1738     1.9492 C.3     
  19 C19           -4.2713    -0.2931     1.6388 C.3     
  20 C20           -4.3331    -0.8228     0.2048 C.3     
  21 C21           -5.7566    -1.2897    -0.1056 C.3     
  22 C22           -5.8184    -1.8195    -1.5396 C.3     
  23 H23            0.4239    -0.5887     0.7658 H       
  24 H24           -1.0761    -0.3329    -0.1572 H       
  25 H25            0.2443    -0.0067    -2.2256 H       
  26 H26            2.6372    -0.6595    -0.4442 H       
  27 H27            2.6803    -0.3949    -2.2050 H       
  28 H28            3.3429     1.6529    -0.9366 H       
  29 H29            1.8664     1.9134    -1.8973 H       
  30 H30            1.6008     2.8358     0.3846 H       
  31 H31            1.9673     1.2383     1.0782 H       
  32 H32            1.0079    -2.2684    -2.3223 H       
  33 H33           -0.3842     1.2889     2.1237 H       
  34 H34           -0.5185     6.1530    -0.1648 H       
  35 H35            0.1869     3.0877     3.5057 H       
  36 H36            1.8192     5.6820     4.1857 H       
  37 H37            0.3606     6.6971     4.2876 H       
  38 H38            0.3512     5.0542     4.9725 H       
  39 H39           -1.7660     0.9975     3.6202 H       
  40 H40           -3.5123     1.3419     3.6328 H       
  41 H41           -2.9229    -0.2842     4.0528 H       
  42 H42           -2.1483    -0.6395     1.7558 H       
  43 H43           -4.5527    -1.0862     2.3316 H       
  44 H44           -4.9601     0.5448     1.7466 H       
  45 H45           -4.0516    -0.0297    -0.4880 H       
  46 H46           -3.6443    -1.6607     0.0970 H       
  47 H47           -6.0381    -2.0828     0.5872 H       
  48 H48           -6.4454    -0.4518     0.0022 H       
  49 H49           -5.5370    -1.0264    -2.2323 H       
  50 H50           -5.1296    -2.6574    -1.6474 H       
  51 H51           -6.8326    -2.1521    -1.7607 H       
@<TRIPOS>BOND
   1    1    2 1
   2    1    6 1
   3    1    8 1
   4    2    3 1
   5    2   23 1
   6    2   24 1
   7    3    4 1
   8    3    7 1
   9    3   25 1
  10    4    5 1
  11    4   26 1
  12    4   27 1
  13    5    6 1
  14    5   28 1
  15    5   29 1
  16    6   30 1
  17    6   31 1
  18    7   32 1
  19    8   11 1
  20    8   16 1
  21    8   33 1
  22    9   10 ar
  23    9   14 ar
  24    9   34 1
  25   10   11 ar
  26   11   12 ar
  27   12   13 ar
  28   12   35 1
  29   13   14 ar
  30   13   15 1
  31   15   36 1
  32   15   37 1
  33   15   38 1
  34   16   18 1
  35   17   18 1
  36   17   39 1
  37   17   40 1
  38   17   41 1
  39   18   19 1
  40   18   42 1
  41   19   20 1
  42   19   43 1
  43   19   44 1
  44   20   21 1
  45   20   45 1
  46   20   46 1
  47   21   22 1
  48   21   47 1
  49   21   48 1
  50   22   49 1
  51   22   50 1
  52   22   51 1

#	End of record

