#	Name: ASD01908222
#	Creating user name:	WinNT
#	Creation time:	15. 06. 2019 19:54

#	Modifying user name:	WinNT
#	Modification time:	15. 06. 2019 19:54

#	Program:	/corina/corina34_cracker 3.40 0067  02.08.2006

@<TRIPOS>MOLECULE
ASD01908222
  29   30    0    0    0
SMALL
NO_CHARGES


@<TRIPOS>ATOM
   1 C1             0.0592     1.5178     0.5828 C.ar    
   2 C2             0.1587     0.2612     1.1762 C.ar    
   3 C3             1.3749    -0.4024     1.1474 C.ar    
   4 C4             2.4499     0.2139     0.5258 C.ar    
   5 C5             2.2790     1.4652    -0.0440 C.ar    
   6 N6             1.1133     2.0729    -0.0023 N.ar    
   7 C7            -1.2353     2.2376     0.5996 C.2     
   8 O8            -2.2050     1.7319     1.1295 O.2     
   9 N9            -1.3378     3.4535     0.0271 N.am    
  10 C10           -2.5837     4.0848    -0.0561 C.ar    
  11 C11           -2.6722     5.4655     0.0610 C.ar    
  12 C12           -3.9069     6.0878    -0.0224 C.ar    
  13 C13           -5.0541     5.3293    -0.2229 C.ar    
  14 C14           -4.9635     3.9541    -0.3393 C.ar    
  15 C15           -3.7320     3.3315    -0.2617 C.ar    
  16 O16           -3.9966     7.4395     0.0924 O.3     
  17 C17           -2.7771     8.1555     0.2977 C.3     
  18 F18           -6.2587     5.9356    -0.3039 F       
  19 H19           -0.6998    -0.1892     1.6523 H       
  20 H20            1.4829    -1.3774     1.5992 H       
  21 H21            3.4114    -0.2765     0.4864 H       
  22 H22            3.1144     1.9481    -0.5291 H       
  23 H23           -0.5478     3.8909    -0.3271 H       
  24 H24           -1.7798     6.0533     0.2171 H       
  25 H25           -5.8560     3.3662    -0.4951 H       
  26 H26           -3.6631     2.2579    -0.3570 H       
  27 H27           -2.3060     7.8139     1.2194 H       
  28 H28           -2.1051     7.9768    -0.5417 H       
  29 H29           -2.9899     9.2219     0.3720 H       
@<TRIPOS>BOND
   1    1    2 ar
   2    1    6 ar
   3    1    7 1
   4    2    3 ar
   5    2   19 1
   6    3    4 ar
   7    3   20 1
   8    4    5 ar
   9    4   21 1
  10    5    6 ar
  11    5   22 1
  12    7    8 2
  13    7    9 am
  14    9   10 1
  15    9   23 1
  16   10   11 ar
  17   10   15 ar
  18   11   12 ar
  19   11   24 1
  20   12   13 ar
  21   12   16 1
  22   13   14 ar
  23   13   18 1
  24   14   15 ar
  25   14   25 1
  26   15   26 1
  27   16   17 1
  28   17   27 1
  29   17   28 1
  30   17   29 1

#	End of record

