#	Name: ASD01911584
#	Creating user name:	WinNT
#	Creation time:	15. 06. 2019 19:58

#	Modifying user name:	WinNT
#	Modification time:	15. 06. 2019 19:58

#	Program:	/corina/corina34_cracker 3.40 0067  02.08.2006

@<TRIPOS>MOLECULE
ASD01911584
  45   47    0    0    0
SMALL
NO_CHARGES


@<TRIPOS>ATOM
   1 N1            -0.0641     1.1314     0.7250 N.am    
   2 C2             0.0021    -0.0041     0.0020 C.2     
   3 C3             1.2748    -0.7187    -0.1246 C.2     
   4 C4             1.4470    -2.0747    -0.0500 C.2     
   5 S5             2.8518     0.0159    -0.4072 S.3     
   6 C6             3.5963    -1.5802    -0.3909 C.2     
   7 N7             2.6740    -2.4890    -0.1928 N.2     
   8 C8             4.9923    -1.8438    -0.5711 C.1     
   9 C9             6.1367    -2.0599    -0.7188 C.1     
  10 C10            7.5327    -2.3234    -0.8990 C.ar    
  11 C11            8.0097    -3.6374    -0.8661 C.ar    
  12 C12            9.3552    -3.8832    -1.0409 C.ar    
  13 C13           10.2329    -2.8333    -1.2481 C.ar    
  14 C14            9.7684    -1.5301    -1.2820 C.ar    
  15 C15            8.4248    -1.2686    -1.1146 C.ar    
  16 O16           -0.9954    -0.4358    -0.5458 O.2     
  17 C17           -1.2994     1.9287     0.7670 C.3     
  18 C18            1.0950     1.6029     1.4979 C.3     
  19 C19            1.3540     3.0704     1.1406 C.3     
  20 N20            0.1206     3.8438     1.3365 N.3     
  21 C21           -0.9509     3.3840     0.4369 C.3     
  22 C22            0.3692     5.2821     1.1707 C.3     
  23 C23           -0.9558     6.0421     1.2579 C.3     
  24 C24            1.3095     5.7679     2.2756 C.3     
  25 H25            0.6236    -2.7534     0.1160 H       
  26 H26            7.3261    -4.4576    -0.7038 H       
  27 H27            9.7252    -4.8975    -1.0157 H       
  28 H28           11.2857    -3.0321    -1.3836 H       
  29 H29           10.4595    -0.7160    -1.4437 H       
  30 H30            8.0638    -0.2511    -1.1412 H       
  31 H31           -2.0074     1.5459     0.0319 H       
  32 H32           -1.7368     1.8740     1.7639 H       
  33 H33            0.8836     1.5174     2.5638 H       
  34 H34            1.9707     1.0047     1.2463 H       
  35 H35            2.1389     3.4683     1.7838 H       
  36 H36            1.6662     3.1413     0.0987 H       
  37 H37           -0.6104     3.4475    -0.5966 H       
  38 H38           -1.8317     4.0123     0.5694 H       
  39 H39            0.8278     5.4618     0.1983 H       
  40 H40           -1.4144     5.8624     2.2303 H       
  41 H41           -0.7714     7.1093     1.1349 H       
  42 H42           -1.6257     5.6960     0.4708 H       
  43 H43            1.4939     6.8351     2.1525 H       
  44 H44            0.8509     5.5881     3.2479 H       
  45 H45            2.2534     5.2264     2.2134 H       
@<TRIPOS>BOND
   1    1    2 am
   2    1   18 1
   3    1   17 1
   4    2    3 1
   5    2   16 2
   6    3    4 2
   7    3    5 1
   8    4    7 1
   9    4   25 1
  10    5    6 1
  11    6    7 2
  12    6    8 1
  13    8    9 3
  14    9   10 1
  15   10   11 ar
  16   10   15 ar
  17   11   12 ar
  18   11   26 1
  19   12   13 ar
  20   12   27 1
  21   13   14 ar
  22   13   28 1
  23   14   15 ar
  24   14   29 1
  25   15   30 1
  26   17   21 1
  27   17   31 1
  28   17   32 1
  29   18   19 1
  30   18   33 1
  31   18   34 1
  32   19   20 1
  33   19   35 1
  34   19   36 1
  35   20   21 1
  36   20   22 1
  37   21   37 1
  38   21   38 1
  39   22   23 1
  40   22   24 1
  41   22   39 1
  42   23   40 1
  43   23   41 1
  44   23   42 1
  45   24   43 1
  46   24   44 1
  47   24   45 1

#	End of record

