#	Name: ASD03430007
#	Creating user name:	WinNT
#	Creation time:	15. 06. 2019 20:40

#	Modifying user name:	WinNT
#	Modification time:	15. 06. 2019 20:40

#	Program:	/corina/corina34_cracker 3.40 0067  02.08.2006

@<TRIPOS>MOLECULE
ASD03430007
  45   50    0    0    0
SMALL
NO_CHARGES


@<TRIPOS>ATOM
   1 C1            -0.0168     1.3911     0.0097 C.ar    
   2 C2             0.0021    -0.0041     0.0020 C.ar    
   3 C3             1.1911    -0.6695    -0.0117 C.ar    
   4 C4             2.4040     0.0256    -0.0082 C.ar    
   5 C5             2.3946     1.4146    -0.0067 C.ar    
   6 C6             1.1925     2.1048     0.0020 C.ar    
   7 O7             3.4620    -0.8334     0.0062 O.3     
   8 C8             1.5385    -2.1340    -0.0457 C.3     
   9 C9             3.0248    -2.1350    -0.4284 C.3     
  10 C10            0.4096    -3.8481     1.0067 C.ar    
  11 C11            1.2990    -2.8097     1.2716 C.ar    
  12 C12            0.7061    -2.8925    -1.0394 C.2     
  13 N13            0.0826    -3.8695    -0.3513 N.am    
  14 O14            0.6132    -2.6696    -2.2280 O.2     
  15 C15            1.7627    -2.5941     2.5502 C.ar    
  16 C16            1.3469    -3.4119     3.5856 C.ar    
  17 C17            0.4641    -4.4464     3.3339 C.ar    
  18 C18           -0.0041    -4.6661     2.0552 C.ar    
  19 C19           -0.8321    -4.8405    -0.9569 C.3     
  20 C20           -2.2382    -4.2999    -0.9152 C.ar    
  21 C21           -1.0917     2.3934     0.0312 C.2     
  22 O22            0.8803     3.4178     0.0048 O.3     
  23 N23           -0.5248     3.5684     0.0258 N.2     
  24 N24           -2.4555     2.1376     0.0528 N.pl3   
  25 C25           -2.7452    -3.6303    -2.0125 C.ar    
  26 C26           -4.0402    -3.1368    -1.9640 C.ar    
  27 C27           -4.7794    -3.3364    -0.8084 C.ar    
  28 C28           -4.2052    -4.0158     0.2496 C.ar    
  29 N29           -2.9724    -4.4761     0.1661 N.ar    
  30 H30           -0.9258    -0.5567     0.0073 H       
  31 H31            3.3274     1.9589    -0.0120 H       
  32 H32            3.1467    -2.2440    -1.5061 H       
  33 H33            3.5608    -2.9208     0.1039 H       
  34 H34            2.4521    -1.7858     2.7448 H       
  35 H35            1.7110    -3.2432     4.5883 H       
  36 H36            0.1397    -5.0849     4.1422 H       
  37 H37           -0.6937    -5.4755     1.8664 H       
  38 H38           -0.5412    -5.0169    -1.9924 H       
  39 H39           -0.7865    -5.7776    -0.4021 H       
  40 H40           -2.7773     1.2225     0.0547 H       
  41 H41           -3.0869     2.8738     0.0660 H       
  42 H42           -2.1404    -3.4928    -2.8967 H       
  43 H43           -4.4626    -2.6092    -2.8063 H       
  44 H44           -5.7911    -2.9653    -0.7354 H       
  45 H45           -4.7744    -4.1752     1.1535 H       
@<TRIPOS>BOND
   1    1    2 ar
   2    1    6 ar
   3    1   21 1
   4    2    3 ar
   5    2   30 1
   6    3    4 ar
   7    3    8 1
   8    4    5 ar
   9    4    7 1
  10    5    6 ar
  11    5   31 1
  12    6   22 1
  13    7    9 1
  14    8    9 1
  15    8   11 1
  16    8   12 1
  17    9   32 1
  18    9   33 1
  19   10   11 ar
  20   10   13 1
  21   10   18 ar
  22   11   15 ar
  23   12   13 am
  24   12   14 2
  25   13   19 1
  26   15   16 ar
  27   15   34 1
  28   16   17 ar
  29   16   35 1
  30   17   18 ar
  31   17   36 1
  32   18   37 1
  33   19   20 1
  34   19   38 1
  35   19   39 1
  36   20   25 ar
  37   20   29 ar
  38   21   23 2
  39   21   24 1
  40   22   23 1
  41   24   40 1
  42   24   41 1
  43   25   26 ar
  44   25   42 1
  45   26   27 ar
  46   26   43 1
  47   27   28 ar
  48   27   44 1
  49   28   29 ar
  50   28   45 1

#	End of record

