#	Name: ASD00840921
#	Creating user name:	WinNT
#	Creation time:	15. 06. 2019 18:40

#	Modifying user name:	WinNT
#	Modification time:	15. 06. 2019 18:40

#	Program:	/corina/corina34_cracker 3.40 0067  02.08.2006

@<TRIPOS>MOLECULE
ASD00840921
  90   95    0    0    0
SMALL
NO_CHARGES


@<TRIPOS>ATOM
   1 F1             6.0692    -1.9367    -2.0373 F       
   2 N2             1.0658     1.4647    -0.7413 N.ar    
   3 C3             1.3280     0.1734    -0.8536 C.ar    
   4 C4             1.2497    -0.6636     0.2523 C.ar    
   5 C5             0.8928    -0.1286     1.4776 C.ar    
   6 C6             0.6255     1.2316     1.5536 C.ar    
   7 C7             0.7230     2.0038     0.4134 C.ar    
   8 C8             1.5489    -2.1346     0.1194 C.3     
   9 C9             1.2683    -2.8527     1.4223 C.2     
  10 C10            0.7280    -2.7466    -1.0174 C.3     
  11 C11           -0.7341    -2.4588    -0.7927 C.2     
  12 N12           -1.6588    -2.9782    -1.6243 N.am    
  13 O13           -1.0787    -1.7597     0.1366 O.2     
  14 C14           -3.0764    -2.6177    -1.4864 C.3     
  15 C15           -3.9031    -3.9024    -1.3726 C.3     
  16 C16           -3.5983    -4.8080    -2.5681 C.3     
  17 C17           -2.1152    -5.1855    -2.5591 C.3     
  18 C18           -1.2675    -3.9110    -2.6899 C.3     
  19 N19           -4.4140    -6.0265    -2.4796 N.3     
  20 C20           -4.2362    -6.8670    -3.6719 C.3     
  21 C21           -5.0385    -8.1597    -3.5057 C.3     
  22 N22           -6.4564    -7.8307    -3.3034 N.3     
  23 C23           -6.6341    -6.9902    -2.1111 C.3     
  24 C24           -5.8319    -5.6974    -2.2774 C.3     
  25 C25           -7.2721    -9.0492    -3.2149 C.3     
  26 O26            0.1968    -2.9314     1.9852 O.2     
  27 N27            2.4290    -3.3869     1.8377 N.am    
  28 C28            3.0261    -2.3557    -0.1118 C.ar    
  29 C29            3.4804    -3.1138     0.9601 C.ar    
  30 C30            3.8856    -1.9613    -1.1125 C.ar    
  31 C31            5.2224    -2.3212    -1.0572 C.ar    
  32 C32            5.6880    -3.0777     0.0076 C.ar    
  33 C33            4.8252    -3.4732     1.0116 C.ar    
  34 F34            6.9912    -3.4296     0.0635 F       
  35 C35            2.3021    -5.9555     2.8180 C.ar    
  36 C36            3.3544    -6.7622     2.4262 C.ar    
  37 C37            1.0219    -6.4726     2.8922 C.ar    
  38 C38            0.7913    -7.7972     2.5748 C.ar    
  39 C39            1.8455    -8.6086     2.1814 C.ar    
  40 C40            3.1290    -8.0873     2.1074 C.ar    
  41 O41            1.6213    -9.9121     1.8691 O.3     
  42 H42            4.3535    -6.3559     2.3691 H       
  43 C43            2.7536   -10.6882     1.4722 C.3     
  44 C44           -8.6864    -8.6841    -2.7596 C.3     
  45 O45            1.6764    -0.3390    -2.0607 O.3     
  46 C46            2.1651    -0.1686    -4.4213 C.3     
  47 C47            1.6312     0.5486    -3.1797 C.3     
  48 S48            2.5940    -4.2675     3.2305 S.o2    
  49 O49            3.9623    -4.1763     3.6031 O.2     
  50 O50            1.5283    -3.8727     4.0834 O.2     
  51 H51            0.8234    -0.7550     2.3547 H       
  52 H52            0.3440     1.6808     2.4945 H       
  53 H53            0.5165     3.0625     0.4672 H       
  54 H54            1.0420    -2.3126    -1.9667 H       
  55 H55            0.8867    -3.8247    -1.0406 H       
  56 H56           -3.2143    -2.0138    -0.5896 H       
  57 H57           -3.3968    -2.0534    -2.3622 H       
  58 H58           -3.6453    -4.4203    -0.4489 H       
  59 H59           -4.9641    -3.6529    -1.3665 H       
  60 H60           -3.8331    -4.2804    -3.4925 H       
  61 H61           -1.8742    -5.6913    -1.6242 H       
  62 H62           -1.9037    -5.8493    -3.3974 H       
  63 H63           -1.4416    -3.4548    -3.6644 H       
  64 H64           -0.2120    -4.1618    -2.5849 H       
  65 H65           -4.5905    -6.3297    -4.5517 H       
  66 H66           -3.1800    -7.1075    -3.7931 H       
  67 H67           -4.9314    -8.7719    -4.4012 H       
  68 H68           -4.6661    -8.7103    -2.6418 H       
  69 H69           -7.6904    -6.7497    -1.9899 H       
  70 H70           -6.2799    -7.5274    -1.2314 H       
  71 H71           -5.9390    -5.0853    -1.3819 H       
  72 H72           -6.2043    -5.1469    -3.1413 H       
  73 H73           -7.3176    -9.5278    -4.1932 H       
  74 H74           -6.8244    -9.7347    -2.4955 H       
  75 H75            3.5180    -1.3725    -1.9399 H       
  76 H76            5.1943    -4.0620     1.8383 H       
  77 H77            0.2016    -5.8405     3.1988 H       
  78 H78           -0.2088    -8.2007     2.6332 H       
  79 H79            3.9514    -8.7171     1.8017 H       
  80 H80            3.4856   -10.7022     2.2797 H       
  81 H81            2.4363   -11.7074     1.2516 H       
  82 H82            3.2027   -10.2469     0.5824 H       
  83 H83           -9.2917    -9.5883    -2.6939 H       
  84 H84           -8.6410    -8.2055    -1.7813 H       
  85 H85           -9.1342    -7.9986    -3.4790 H       
  86 H86            1.5003    -0.9931    -4.6786 H       
  87 H87            2.2126     0.5333    -5.2540 H       
  88 H88            3.1627    -0.5567    -4.2159 H       
  89 H89            0.6016     0.8604    -3.3548 H       
  90 H90            2.2461     1.4247    -2.9736 H       
@<TRIPOS>BOND
   1    1   31 1
   2    2    3 ar
   3    2    7 ar
   4    3    4 ar
   5    3   45 1
   6    4    5 ar
   7    4    8 1
   8    5    6 ar
   9    5   51 1
  10    6    7 ar
  11    6   52 1
  12    7   53 1
  13    8    9 1
  14    8   10 1
  15    8   28 1
  16    9   26 2
  17    9   27 am
  18   10   11 1
  19   10   54 1
  20   10   55 1
  21   11   12 am
  22   11   13 2
  23   12   14 1
  24   12   18 1
  25   14   15 1
  26   14   56 1
  27   14   57 1
  28   15   16 1
  29   15   58 1
  30   15   59 1
  31   16   17 1
  32   16   19 1
  33   16   60 1
  34   17   18 1
  35   17   61 1
  36   17   62 1
  37   18   63 1
  38   18   64 1
  39   19   20 1
  40   19   24 1
  41   20   21 1
  42   20   65 1
  43   20   66 1
  44   21   22 1
  45   21   67 1
  46   21   68 1
  47   22   23 1
  48   22   25 1
  49   23   24 1
  50   23   69 1
  51   23   70 1
  52   24   71 1
  53   24   72 1
  54   25   44 1
  55   25   73 1
  56   25   74 1
  57   27   48 am
  58   27   29 1
  59   28   29 ar
  60   28   30 ar
  61   29   33 ar
  62   30   31 ar
  63   30   75 1
  64   31   32 ar
  65   32   33 ar
  66   32   34 1
  67   33   76 1
  68   35   36 ar
  69   35   37 ar
  70   35   48 1
  71   36   42 1
  72   36   40 ar
  73   37   38 ar
  74   37   77 1
  75   38   39 ar
  76   38   78 1
  77   39   40 ar
  78   39   41 1
  79   40   79 1
  80   41   43 1
  81   43   80 1
  82   43   81 1
  83   43   82 1
  84   44   83 1
  85   44   84 1
  86   44   85 1
  87   45   47 1
  88   46   47 1
  89   46   86 1
  90   46   87 1
  91   46   88 1
  92   47   89 1
  93   47   90 1
  94   48   49 2
  95   48   50 2

#	End of record

