#	Name: ASD01882369
#	Creating user name:	WinNT
#	Creation time:	15. 06. 2019 19:44

#	Modifying user name:	WinNT
#	Modification time:	15. 06. 2019 19:44

#	Program:	/corina/corina34_cracker 3.40 0067  02.08.2006

@<TRIPOS>MOLECULE
ASD01882369
  47   51    0    0    0
SMALL
NO_CHARGES


@<TRIPOS>ATOM
   1 C1             1.5484     1.4579    -1.0838 C.2     
   2 C2             1.6032     0.0534    -1.1156 C.2     
   3 C3             1.2066    -0.6546    -0.0130 C.2     
   4 C4             0.7515     0.0354     1.1313 C.2     
   5 C5             0.7072     1.3822     1.1399 C.2     
   6 N6             1.1002     2.0975     0.0463 N.pl3   
   7 N7             1.6255     3.5578    -1.4478 N.2     
   8 N8             1.8579     2.4009    -1.9607 N.2     
   9 C9             1.1652     3.4314    -0.2310 C.2     
  10 N10            1.2514    -2.0467    -0.0204 N.pl3   
  11 C11            2.5313    -2.7602    -0.1465 C.3     
  12 C12            2.6246    -3.7953     0.9796 C.3     
  13 N13            1.4311    -4.6513     0.9536 N.3     
  14 C14            0.2121    -3.8741     1.2140 C.3     
  15 C15            0.0205    -2.8422     0.1037 C.3     
  16 S16            2.9049    -5.9737     2.8610 S.3     
  17 C17            1.5526    -5.7004     1.8513 C.2     
  18 N18            0.6568    -6.6172     2.0483 N.2     
  19 C19            0.9391    -7.5448     2.9457 C.2     
  20 C20            2.1277    -7.4046     3.5332 C.2     
  21 C21           -0.0060    -8.6705     3.2784 C.3     
  22 C22            0.7792     4.5543     0.6970 C.3     
  23 C23            1.9966     4.9750     1.5226 C.3     
  24 C24            1.8403     6.1851     2.4457 C.3     
  25 C25            1.9251     4.7770     3.0381 C.3     
  26 Cl26           2.1662    -0.7725    -2.5350 Cl      
  27 H27            0.4372    -0.5184     2.0036 H       
  28 H28            0.3571     1.9003     2.0204 H       
  29 H29            2.5760    -3.2643    -1.1119 H       
  30 H30            3.3553    -2.0517    -0.0618 H       
  31 H31            3.5149    -4.4080     0.8376 H       
  32 H32            2.6843    -3.2834     1.9401 H       
  33 H33           -0.6473    -4.5440     1.2420 H       
  34 H34            0.3053    -3.3612     2.1713 H       
  35 H35           -0.8147    -2.1880     0.3537 H       
  36 H36           -0.1808    -3.3544    -0.8372 H       
  37 H37            2.5419    -8.0550     4.2894 H       
  38 H38            0.1965    -9.5198     2.6259 H       
  39 H39            0.1355    -8.9686     4.3173 H       
  40 H40           -1.0335    -8.3372     3.1327 H       
  41 H41            0.4256     5.4035     0.1123 H       
  42 H42           -0.0139     4.2175     1.3646 H       
  43 H43            2.9638     4.8309     1.0410 H       
  44 H44            2.7047     6.8370     2.5716 H       
  45 H45            0.8701     6.6815     2.4647 H       
  46 H46            1.0107     4.3471     3.4469 H       
  47 H47            2.8453     4.5025     3.5538 H       
@<TRIPOS>BOND
   1    1    2 1
   2    1    6 1
   3    1    8 2
   4    2    3 2
   5    2   26 1
   6    3    4 1
   7    3   10 1
   8    4    5 2
   9    4   27 1
  10    5    6 1
  11    5   28 1
  12    6    9 1
  13    7    8 1
  14    7    9 2
  15    9   22 1
  16   10   11 1
  17   10   15 1
  18   11   12 1
  19   11   29 1
  20   11   30 1
  21   12   13 1
  22   12   31 1
  23   12   32 1
  24   13   14 1
  25   13   17 1
  26   14   15 1
  27   14   33 1
  28   14   34 1
  29   15   35 1
  30   15   36 1
  31   16   17 1
  32   16   20 1
  33   17   18 2
  34   18   19 1
  35   19   20 2
  36   19   21 1
  37   20   37 1
  38   21   38 1
  39   21   39 1
  40   21   40 1
  41   22   23 1
  42   22   41 1
  43   22   42 1
  44   23   24 1
  45   23   25 1
  46   23   43 1
  47   24   25 1
  48   24   44 1
  49   24   45 1
  50   25   46 1
  51   25   47 1

#	End of record

