#	Name: ASD04880203
#	Creating user name:	WinNT
#	Creation time:	15. 06. 2019 20:53

#	Modifying user name:	WinNT
#	Modification time:	15. 06. 2019 20:53

#	Program:	/corina/corina34_cracker 3.40 0067  02.08.2006

@<TRIPOS>MOLECULE
ASD04880203
  30   32    0    0    0
SMALL
NO_CHARGES


@<TRIPOS>ATOM
   1 C1            -0.0105     1.5405     0.0945 C.3     
   2 C2             0.0062     0.0004     0.0300 C.3     
   3 N3             1.4403    -0.3295     0.0242 N.am    
   4 N4             2.1750     0.8533     0.0780 N.2     
   5 C5             1.4528     1.9201     0.1187 C.2     
   6 C6             1.9733     3.2976     0.1790 C.2     
   7 C7             1.9585    -1.5727    -0.0247 C.2     
   8 O8             1.2243    -2.5403     0.0354 O.2     
   9 C9             3.4192    -1.7600    -0.1513 C.ar    
  10 C10            4.2510    -0.6595    -0.3639 C.ar    
  11 C11            5.6139    -0.8398    -0.4808 C.ar    
  12 C12            6.1579    -2.1080    -0.3880 C.ar    
  13 C13            5.3387    -3.2059    -0.1774 C.ar    
  14 C14            3.9730    -3.0376    -0.0529 C.ar    
  15 F15            5.8769    -4.4419    -0.0882 F       
  16 C16            1.1784     4.3872     0.2256 C.2     
  17 C17            3.3802     3.6105     0.2001 C.2     
  18 C18            3.6464     4.9105     0.2557 C.2     
  19 S19            2.1589     5.8435     0.2897 S.3     
  20 H20           -0.4985     1.9548    -0.7877 H       
  21 H21           -0.5086     1.8796     1.0028 H       
  22 H22           -0.4818    -0.4256     0.9066 H       
  23 H23           -0.4717    -0.3504    -0.8847 H       
  24 H24            3.8283     0.3317    -0.4371 H       
  25 H25            6.2576     0.0116    -0.6457 H       
  26 H26            7.2254    -2.2433    -0.4803 H       
  27 H27            3.3347    -3.8931     0.1116 H       
  28 H28            0.0986     4.3669     0.2237 H       
  29 H29            4.1505     2.8539     0.1733 H       
  30 H30            4.6393     5.3348     0.2796 H       
@<TRIPOS>BOND
   1    1    2 1
   2    1    5 1
   3    1   20 1
   4    1   21 1
   5    2    3 1
   6    2   22 1
   7    2   23 1
   8    3    4 1
   9    3    7 am
  10    4    5 2
  11    5    6 1
  12    6   17 1
  13    6   16 2
  14    7    8 2
  15    7    9 1
  16    9   10 ar
  17    9   14 ar
  18   10   11 ar
  19   10   24 1
  20   11   12 ar
  21   11   25 1
  22   12   13 ar
  23   12   26 1
  24   13   14 ar
  25   13   15 1
  26   14   27 1
  27   16   19 1
  28   16   28 1
  29   17   18 2
  30   17   29 1
  31   18   19 1
  32   18   30 1

#	End of record

