#	Name: ASD01881959
#	Creating user name:	WinNT
#	Creation time:	15. 06. 2019 19:43

#	Modifying user name:	WinNT
#	Modification time:	15. 06. 2019 19:43

#	Program:	/corina/corina34_cracker 3.40 0067  02.08.2006

@<TRIPOS>MOLECULE
ASD01881959
  50   53    0    0    0
SMALL
NO_CHARGES


@<TRIPOS>ATOM
   1 N1            -0.0178     1.4642     0.0101 N.3     
   2 C2             0.0021    -0.0041     0.0020 C.3     
   3 C3             0.7039    -0.5130     1.2631 C.3     
   4 C4             2.1331     0.0352     1.3025 C.3     
   5 C5             2.0858     1.5651     1.2611 C.3     
   6 C6             1.3439     2.0138     0.0000 C.3     
   7 C7             2.7942    -0.4031     2.5425 C.1     
   8 N8             3.3043    -0.7414     3.4994 N.1     
   9 C9            -0.8045     1.9863    -1.1153 C.3     
  10 C10           -1.0123     3.4916    -0.9375 C.3     
  11 C11           -1.8317     4.0353    -2.1097 C.3     
  12 O12           -2.0257     5.4413    -1.9436 O.3     
  13 N13           -4.8654     8.2656    -5.6804 N.pl3   
  14 N14           -4.7489     9.5142    -5.0518 N.2     
  15 N15           -4.0696     9.3856    -3.9670 N.2     
  16 C16           -3.6979     8.1012    -3.7964 C.ar    
  17 C17           -4.1975     7.3637    -4.8838 C.ar    
  18 C18           -2.9613     7.4417    -2.8028 C.ar    
  19 C19           -2.7397     6.0839    -2.9062 C.ar    
  20 C20           -3.2413     5.3667    -3.9896 C.ar    
  21 C21           -3.9600     5.9964    -4.9665 C.ar    
  22 C22           -5.5657     7.9774    -6.9345 C.3     
  23 C23           -4.5961     8.1340    -8.1076 C.3     
  24 C24           -5.1069     7.7612    -9.5009 C.3     
  25 C25           -4.8969     9.2309    -9.1310 C.3     
  26 Br26          -2.2761     8.4073    -1.3284 Br      
  27 H27           -1.0204    -0.3810    -0.0218 H       
  28 H28            0.5390    -0.3552    -0.8792 H       
  29 H29            0.1597    -0.1738     2.1445 H       
  30 H30            0.7324    -1.6025     1.2493 H       
  31 H31            2.6892    -0.3354     0.4414 H       
  32 H32            1.5633     1.9370     2.1425 H       
  33 H33            3.1015     1.9603     1.2458 H       
  34 H34            1.8745     1.6533    -0.8812 H       
  35 H35            1.2960     3.1025    -0.0252 H       
  36 H36           -0.2719     1.8007    -2.0480 H       
  37 H37           -1.7729     1.4868    -1.1444 H       
  38 H38           -1.5450     3.6772    -0.0048 H       
  39 H39           -0.0439     3.9911    -0.9085 H       
  40 H40           -1.2990     3.8497    -3.0424 H       
  41 H41           -2.8001     3.5358    -2.1387 H       
  42 H42           -3.0602     4.3042    -4.0586 H       
  43 H43           -4.3445     5.4314    -5.8027 H       
  44 H44           -5.9464     6.9562    -6.9116 H       
  45 H45           -6.3967     8.6723    -7.0546 H       
  46 H46           -3.5496     7.9277    -7.8834 H       
  47 H47           -4.3962     7.3100   -10.1933 H       
  48 H48           -6.1336     7.4043    -9.5817 H       
  49 H49           -5.7855     9.8409    -8.9685 H       
  50 H50           -4.0481     9.7466    -9.5802 H       
@<TRIPOS>BOND
   1    1    2 1
   2    1    6 1
   3    1    9 1
   4    2    3 1
   5    2   27 1
   6    2   28 1
   7    3    4 1
   8    3   29 1
   9    3   30 1
  10    4    5 1
  11    4    7 1
  12    4   31 1
  13    5    6 1
  14    5   32 1
  15    5   33 1
  16    6   34 1
  17    6   35 1
  18    7    8 3
  19    9   10 1
  20    9   36 1
  21    9   37 1
  22   10   11 1
  23   10   38 1
  24   10   39 1
  25   11   12 1
  26   11   40 1
  27   11   41 1
  28   12   19 1
  29   13   14 1
  30   13   17 1
  31   13   22 1
  32   14   15 2
  33   15   16 1
  34   16   17 ar
  35   16   18 ar
  36   17   21 ar
  37   18   19 ar
  38   18   26 1
  39   19   20 ar
  40   20   21 ar
  41   20   42 1
  42   21   43 1
  43   22   23 1
  44   22   44 1
  45   22   45 1
  46   23   24 1
  47   23   25 1
  48   23   46 1
  49   24   25 1
  50   24   47 1
  51   24   48 1
  52   25   49 1
  53   25   50 1

#	End of record

