#	Name: ASD07300205
#	Creating user name:	WinNT
#	Creation time:	15. 06. 2019 21:09

#	Modifying user name:	WinNT
#	Modification time:	15. 06. 2019 21:09

#	Program:	/corina/corina34_cracker 3.40 0067  02.08.2006

@<TRIPOS>MOLECULE
ASD07300205
  53   58    0    0    0
SMALL
NO_CHARGES


@<TRIPOS>ATOM
   1 C1            -0.0901     1.4464     1.1526 C.ar    
   2 C2            -0.0799     0.0544     1.2859 C.ar    
   3 C3             1.1200    -0.5962     1.5314 C.ar    
   4 C4             2.2723     0.1695     1.6356 C.ar    
   5 C5             2.1887     1.5418     1.4929 C.ar    
   6 N6             1.0340     2.1352     1.2597 N.ar    
   7 C7            -2.1690     0.7017     0.9134 C.2     
   8 N8            -1.4108     1.8138     0.9210 N.am    
   9 N9            -1.3929    -0.3782     1.1256 N.am    
  10 O10           -3.3726     0.6756     0.7365 O.2     
  11 N11           -3.4591     6.9345     0.1344 N.pl3   
  12 C12           -4.8930     6.7016    -0.0572 C.3     
  13 C13           -5.0733     5.1793     0.0586 C.3     
  14 C14           -3.6806     4.6490     0.3157 C.ar    
  15 C15           -3.2245     3.3590     0.5049 C.ar    
  16 C16           -1.8752     3.1236     0.7282 C.ar    
  17 C17           -0.9869     4.1904     0.7605 C.ar    
  18 C18           -1.4430     5.4766     0.5717 C.ar    
  19 C19           -2.8000     5.7188     0.3465 C.ar    
  20 C20           -2.8476     8.1712     0.1042 C.2     
  21 N21           -1.5554     8.3736     0.1742 N.2     
  22 C22           -1.2984     9.7066     0.1158 C.ar    
  23 C23           -2.5361    10.3616     0.0015 C.ar    
  24 N24           -3.4992     9.3662    -0.0089 N.pl3   
  25 C25           -0.1224    10.4595     0.1473 C.ar    
  26 C26           -0.1871    11.8328     0.0661 C.ar    
  27 C27           -1.4113    12.4742    -0.0466 C.ar    
  28 C28           -2.5823    11.7447    -0.0791 C.ar    
  29 C29           -4.9474     9.5593    -0.1175 C.3     
  30 C30           -1.8528    -1.7678     1.1866 C.3     
  31 C31           -2.2305    -2.1172     2.6275 C.3     
  32 H32            1.1564    -1.6702     1.6390 H       
  33 H33            3.2250    -0.3019     1.8267 H       
  34 H34            3.0849     2.1389     1.5742 H       
  35 H35           -5.4657     7.2102     0.7183 H       
  36 H36           -5.2033     7.0451    -1.0440 H       
  37 H37           -5.7323     4.9369     0.8924 H       
  38 H38           -5.4697     4.7716    -0.8713 H       
  39 H39           -3.9190     2.5324     0.4793 H       
  40 H40            0.0638     4.0114     0.9344 H       
  41 H41           -0.7473     6.3023     0.5982 H       
  42 H42            0.8345     9.9665     0.2353 H       
  43 H43            0.7225    12.4146     0.0908 H       
  44 H44           -1.4486    13.5518    -0.1095 H       
  45 H45           -3.5326    12.2503    -0.1674 H       
  46 H46           -5.3897     9.5589     0.8787 H       
  47 H47           -5.1512    10.5127    -0.6051 H       
  48 H48           -5.3787     8.7502    -0.7069 H       
  49 H49           -2.7236    -1.8909     0.5426 H       
  50 H50           -1.0551    -2.4297     0.8495 H       
  51 H51           -3.0283    -1.4553     2.9646 H       
  52 H52           -2.5727    -3.1511     2.6729 H       
  53 H53           -1.3598    -1.9940     3.2714 H       
@<TRIPOS>BOND
   1    1    2 ar
   2    1    6 ar
   3    1    8 1
   4    2    3 ar
   5    2    9 1
   6    3    4 ar
   7    3   32 1
   8    4    5 ar
   9    4   33 1
  10    5    6 ar
  11    5   34 1
  12    7    8 am
  13    7    9 am
  14    7   10 2
  15    8   16 1
  16    9   30 1
  17   11   12 1
  18   11   19 1
  19   11   20 1
  20   12   13 1
  21   12   35 1
  22   12   36 1
  23   13   14 1
  24   13   37 1
  25   13   38 1
  26   14   15 ar
  27   14   19 ar
  28   15   16 ar
  29   15   39 1
  30   16   17 ar
  31   17   18 ar
  32   17   40 1
  33   18   19 ar
  34   18   41 1
  35   20   21 2
  36   20   24 1
  37   21   22 1
  38   22   23 ar
  39   22   25 ar
  40   23   24 1
  41   23   28 ar
  42   24   29 1
  43   25   26 ar
  44   25   42 1
  45   26   27 ar
  46   26   43 1
  47   27   28 ar
  48   27   44 1
  49   28   45 1
  50   29   46 1
  51   29   47 1
  52   29   48 1
  53   30   31 1
  54   30   49 1
  55   30   50 1
  56   31   51 1
  57   31   52 1
  58   31   53 1

#	End of record

