#	Name: ASD05842013
#	Creating user name:	WinNT
#	Creation time:	15. 06. 2019 21:03

#	Modifying user name:	WinNT
#	Modification time:	15. 06. 2019 21:03

#	Program:	/corina/corina34_cracker 3.40 0067  02.08.2006

@<TRIPOS>MOLECULE
ASD05842013
  46   48    0    0    0
SMALL
NO_CHARGES


@<TRIPOS>ATOM
   1 C1            -0.1982     1.6534    -0.1118 C.ar    
   2 C2            -0.0741     0.2768    -0.1313 C.ar    
   3 C3            -1.2030    -0.5197    -0.0845 C.ar    
   4 C4            -2.4559     0.0605    -0.0178 C.ar    
   5 C5            -2.5800     1.4371     0.0026 C.ar    
   6 C6            -1.4509     2.2335    -0.0397 C.ar    
   7 C7             1.0324     2.5217    -0.1628 C.3     
   8 N8             1.3654     2.8174    -1.5627 N.3     
   9 C9             2.5627     3.6639    -1.6516 C.3     
  10 C10            2.8772     3.9497    -3.1214 C.3     
  11 C11            4.1055     4.8181    -3.2126 C.ar    
  12 C12            5.3574     4.2380    -3.2973 C.ar    
  13 C13            6.4840     5.0345    -3.3809 C.ar    
  14 C14            6.3588     6.4112    -3.3803 C.ar    
  15 C15            5.1068     6.9913    -3.2965 C.ar    
  16 C16            3.9799     6.1947    -3.2172 C.ar    
  17 C17           -4.3858    -1.7208     2.2554 C.ar    
  18 C18           -4.3544    -0.6559     1.3746 C.ar    
  19 C19           -4.9350     0.5485     1.7254 C.ar    
  20 C20           -5.5476     0.6879     2.9568 C.ar    
  21 C21           -5.5798    -0.3773     3.8372 C.ar    
  22 C22           -4.9999    -1.5820     3.4861 C.ar    
  23 C23           -3.6866    -0.8078     0.0322 C.3     
  24 Cl24          -4.8300    -0.3052    -1.2681 Cl      
  25 H25            0.9048    -0.1765    -0.1834 H       
  26 H26           -1.1060    -1.5952    -0.1004 H       
  27 H27           -3.5589     1.8903     0.0544 H       
  28 H28           -1.5478     3.3090    -0.0238 H       
  29 H29            0.8421     3.4534     0.3699 H       
  30 H30            1.8658     1.9987     0.3062 H       
  31 H31            1.4832     1.9675    -2.0937 H       
  32 H32            2.3829     4.6035    -1.1292 H       
  33 H33            3.4067     3.1488    -1.1929 H       
  34 H34            3.0569     3.0101    -3.6439 H       
  35 H35            2.0332     4.4648    -3.5801 H       
  36 H36            5.4552     3.1624    -3.2978 H       
  37 H37            7.4621     4.5813    -3.4464 H       
  38 H38            7.2391     7.0335    -3.4449 H       
  39 H39            5.0090     8.0669    -3.2956 H       
  40 H40            3.0018     6.6479    -3.1518 H       
  41 H41           -3.9360    -2.6632     1.9796 H       
  42 H42           -4.9099     1.3807     1.0375 H       
  43 H43           -6.0006     1.6291     3.2311 H       
  44 H44           -6.0580    -0.2683     4.7994 H       
  45 H45           -5.0254    -2.4144     4.1738 H       
  46 H46           -3.4025    -1.8496    -0.1164 H       
@<TRIPOS>BOND
   1    1    2 ar
   2    1    7 1
   3    1    6 ar
   4    2    3 ar
   5    2   25 1
   6    3    4 ar
   7    3   26 1
   8    4    5 ar
   9    4   23 1
  10    5    6 ar
  11    5   27 1
  12    6   28 1
  13    7    8 1
  14    7   29 1
  15    7   30 1
  16    8    9 1
  17    8   31 1
  18    9   10 1
  19    9   32 1
  20    9   33 1
  21   10   11 1
  22   10   34 1
  23   10   35 1
  24   11   12 ar
  25   11   16 ar
  26   12   13 ar
  27   12   36 1
  28   13   14 ar
  29   13   37 1
  30   14   15 ar
  31   14   38 1
  32   15   16 ar
  33   15   39 1
  34   16   40 1
  35   17   18 ar
  36   17   22 ar
  37   17   41 1
  38   18   19 ar
  39   18   23 1
  40   19   20 ar
  41   19   42 1
  42   20   21 ar
  43   20   43 1
  44   21   22 ar
  45   21   44 1
  46   22   45 1
  47   23   24 1
  48   23   46 1

#	End of record

