#	Name: ASD03320136
#	Creating user name:	WinNT
#	Creation time:	15. 06. 2019 20:36

#	Modifying user name:	WinNT
#	Modification time:	15. 06. 2019 20:36

#	Program:	/corina/corina34_cracker 3.40 0067  02.08.2006

@<TRIPOS>MOLECULE
ASD03320136
  40   42    0    0    0
SMALL
NO_CHARGES


@<TRIPOS>ATOM
   1 C1            -0.0169     1.3914    -0.0025 C.ar    
   2 C2             0.0024    -0.0047    -0.0128 C.ar    
   3 C3            -1.1823    -0.7135    -0.0124 C.ar    
   4 C4            -2.3922    -0.0474    -0.0014 C.ar    
   5 C5            -2.4248     1.3467     0.0089 C.ar    
   6 C6            -1.2359     2.0679     0.0140 C.ar    
   7 C7             1.2518     2.1502    -0.0028 C.2     
   8 O8             1.2331     3.3656     0.0061 O.2     
   9 N9             2.4292     1.4944    -0.0131 N.am    
  10 C10            3.6263     2.2084    -0.1263 C.ar    
  11 C11           -3.7265     2.0596     0.0197 C.ar    
  12 C12            4.7643     1.7689     0.5377 C.ar    
  13 C13            5.9451     2.4760     0.4235 C.ar    
  14 C14            5.9951     3.6206    -0.3509 C.ar    
  15 C15            4.8639     4.0610    -1.0133 C.ar    
  16 C16            3.6814     3.3555    -0.9075 C.ar    
  17 C17            7.2852     4.3900    -0.4729 C.3     
  18 C18            8.0861     3.8574    -1.6627 C.3     
  19 F19            7.3384     4.0119    -2.8349 F       
  20 C20           -4.9317     1.3533     0.0198 C.ar    
  21 N21           -6.0687     2.0276     0.0301 N.ar    
  22 C22           -6.0749     3.3458     0.0402 C.ar    
  23 N23           -4.9608     4.0505     0.0401 N.ar    
  24 C24           -3.7802     3.4555     0.0361 C.ar    
  25 F25            9.2837     4.5717    -1.7759 F       
  26 F26            8.3687     2.5016    -1.4652 F       
  27 H27            0.9455    -0.5309    -0.0214 H       
  28 H28           -1.1630    -1.7933    -0.0211 H       
  29 H29           -3.3155    -0.6077    -0.0012 H       
  30 H30           -1.2567     3.1477     0.0223 H       
  31 H31            2.4463     0.5272     0.0580 H       
  32 H32            4.7258     0.8752     1.1430 H       
  33 H33            6.8302     2.1350     0.9398 H       
  34 H34            4.9063     4.9553    -1.6173 H       
  35 H35            2.7983     3.6997    -1.4253 H       
  36 H36            7.0650     5.4464    -0.6268 H       
  37 H37            7.8678     4.2696     0.4405 H       
  38 H38           -4.9345     0.2733     0.0112 H       
  39 H39           -7.0221     3.8646     0.0485 H       
  40 H40           -2.8717     4.0394     0.0364 H       
@<TRIPOS>BOND
   1    1    2 ar
   2    1    7 1
   3    1    6 ar
   4    2    3 ar
   5    2   27 1
   6    3    4 ar
   7    3   28 1
   8    4    5 ar
   9    4   29 1
  10    5    6 ar
  11    5   11 1
  12    6   30 1
  13    7    8 2
  14    7    9 am
  15    9   10 1
  16    9   31 1
  17   10   12 ar
  18   10   16 ar
  19   11   20 ar
  20   11   24 ar
  21   12   13 ar
  22   12   32 1
  23   13   14 ar
  24   13   33 1
  25   14   15 ar
  26   14   17 1
  27   15   16 ar
  28   15   34 1
  29   16   35 1
  30   17   18 1
  31   17   36 1
  32   17   37 1
  33   18   19 1
  34   18   25 1
  35   18   26 1
  36   20   21 ar
  37   20   38 1
  38   21   22 ar
  39   22   23 ar
  40   22   39 1
  41   23   24 ar
  42   24   40 1

#	End of record

