#	Name: ASD02500242
#	Creating user name:	WinNT
#	Creation time:	15. 06. 2019 20:22

#	Modifying user name:	WinNT
#	Modification time:	15. 06. 2019 20:22

#	Program:	/corina/corina34_cracker 3.40 0067  02.08.2006

@<TRIPOS>MOLECULE
ASD02500242
  63   67    0    0    0
SMALL
NO_CHARGES


@<TRIPOS>ATOM
   1 N1            -1.8484     4.6202     1.9231 N.ar    
   2 C2            -2.9550     5.2453     2.2438 C.ar    
   3 C3            -3.7402     4.8399     3.3211 C.ar    
   4 C4            -3.3624     3.7646     4.0736 C.ar    
   5 C5            -2.1736     3.0954     3.7259 C.ar    
   6 C6            -1.7214     1.9828     4.4528 C.ar    
   7 C7            -0.5661     1.3630     4.0850 C.ar    
   8 C8             0.1744     1.8187     2.9964 C.ar    
   9 C9            -0.2347     2.8943     2.2697 C.ar    
  10 C10           -1.4221     3.5608     2.6182 C.ar    
  11 S11            0.7213     3.4499     0.8978 S.o2    
  12 O12            0.8634     4.8555     1.0507 O.2     
  13 O13            1.8273     2.5637     0.7942 O.2     
  14 N14           -0.1931     3.2177    -0.4631 N.am    
  15 C15           -0.5432     1.9298    -0.8542 C.ar    
  16 C16           -1.8558     1.6480    -1.2134 C.ar    
  17 C17           -2.2040     0.3670    -1.6029 C.ar    
  18 C18           -1.2262    -0.6402    -1.6322 C.ar    
  19 C19            0.0904    -0.3406    -1.2678 C.ar    
  20 C20            0.4245     0.9280    -0.8901 C.ar    
  21 O21           -3.4837     0.0853    -1.9542 O.3     
  22 C22           -4.4232     1.1607    -1.8993 C.3     
  23 C23           -1.5857    -2.0071    -2.0446 C.2     
  24 O24           -2.4900    -2.5942    -1.4815 O.2     
  25 N25           -0.9128    -2.6078    -3.0460 N.am    
  26 C26           -1.3247    -3.9307    -3.5359 C.3     
  27 C27           -1.5661    -3.8401    -5.0478 C.3     
  28 N28           -0.4076    -3.1837    -5.6698 N.am    
  29 C29            0.0043    -1.8608    -5.1799 C.3     
  30 C30            0.2422    -1.9489    -3.6718 C.3     
  31 C31            0.2653    -3.7844    -6.6712 C.2     
  32 C32            1.3540    -3.0650    -7.3660 C.ar    
  33 C33            1.2858    -1.6790    -7.5522 C.ar    
  34 C34            2.3320    -1.0530    -8.2088 C.ar    
  35 C35            3.4013    -1.8109    -8.6556 C.ar    
  36 N36            3.4371    -3.1159    -8.4658 N.ar    
  37 C37            2.4693    -3.7550    -7.8420 C.ar    
  38 O38           -0.0230    -4.9176    -7.0031 O.2     
  39 Cl39           2.3030     0.6630    -8.4695 Cl      
  40 H40           -3.2662     6.0973     1.6577 H       
  41 H41           -4.6467     5.3758     3.5611 H       
  42 H42           -3.9588     3.4369     4.9122 H       
  43 H43           -2.2864     1.6208     5.2991 H       
  44 H44           -0.2189     0.5071     4.6448 H       
  45 H45            1.0878     1.3104     2.7251 H       
  46 H46           -0.4846     3.9799    -0.9875 H       
  47 H47           -2.6028     2.4276    -1.1881 H       
  48 H48            0.8448    -1.1132    -1.2889 H       
  49 H49            1.4435     1.1553    -0.6135 H       
  50 H50           -5.4058     0.8006    -2.2042 H       
  51 H51           -4.4769     1.5446    -0.8806 H       
  52 H52           -4.1035     1.9571    -2.5713 H       
  53 H53           -0.5374    -4.6570    -3.3340 H       
  54 H54           -2.2442    -4.2358    -3.0363 H       
  55 H55           -1.6837    -4.8422    -5.4602 H       
  56 H56           -2.4652    -3.2548    -5.2403 H       
  57 H57            0.9238    -1.5557    -5.6795 H       
  58 H58           -0.7830    -1.1345    -5.3818 H       
  59 H59            0.3574    -0.9455    -3.2619 H       
  60 H60            1.1437    -2.5308    -3.4798 H       
  61 H61            0.4390    -1.1128    -7.1933 H       
  62 H62            4.2189    -1.3259    -9.1681 H       
  63 H63            2.5373    -4.8238    -7.7019 H       
@<TRIPOS>BOND
   1    1    2 ar
   2    1   10 ar
   3    2    3 ar
   4    2   40 1
   5    3    4 ar
   6    3   41 1
   7    4    5 ar
   8    4   42 1
   9    5    6 ar
  10    5   10 ar
  11    6    7 ar
  12    6   43 1
  13    7    8 ar
  14    7   44 1
  15    8    9 ar
  16    8   45 1
  17    9   10 ar
  18    9   11 1
  19   11   12 2
  20   11   13 2
  21   11   14 am
  22   14   15 1
  23   14   46 1
  24   15   16 ar
  25   15   20 ar
  26   16   17 ar
  27   16   47 1
  28   17   18 ar
  29   17   21 1
  30   18   19 ar
  31   18   23 1
  32   19   20 ar
  33   19   48 1
  34   20   49 1
  35   21   22 1
  36   22   50 1
  37   22   51 1
  38   22   52 1
  39   23   24 2
  40   23   25 am
  41   25   26 1
  42   25   30 1
  43   26   27 1
  44   26   53 1
  45   26   54 1
  46   27   28 1
  47   27   55 1
  48   27   56 1
  49   28   29 1
  50   28   31 am
  51   29   30 1
  52   29   57 1
  53   29   58 1
  54   30   59 1
  55   30   60 1
  56   31   32 1
  57   31   38 2
  58   32   33 ar
  59   32   37 ar
  60   33   34 ar
  61   33   61 1
  62   34   35 ar
  63   34   39 1
  64   35   36 ar
  65   35   62 1
  66   36   37 ar
  67   37   63 1

#	End of record

