#	Name: ASD01914965
#	Creating user name:	WinNT
#	Creation time:	15. 06. 2019 20:04

#	Modifying user name:	WinNT
#	Modification time:	15. 06. 2019 20:04

#	Program:	/corina/corina34_cracker 3.40 0067  02.08.2006

@<TRIPOS>MOLECULE
ASD01914965
  61   64    0    0    0
SMALL
NO_CHARGES


@<TRIPOS>ATOM
   1 C1            -0.0158     1.3120     0.0093 C.2     
   2 N2             0.0021    -0.0041     0.0020 N.2     
   3 C3             1.3183     1.7636    -0.0011 C.2     
   4 C4             2.1227     0.6785    -0.0146 C.2     
   5 N5             1.3391    -0.4213    -0.0130 N.pl3   
   6 C6            -1.2277     2.1688     0.0199 C.ar    
   7 C7            -2.4942     1.5876     0.0235 C.ar    
   8 C8            -3.6181     2.3878     0.0339 C.ar    
   9 C9            -3.4888     3.7673     0.0403 C.ar    
  10 C10           -2.2317     4.3491     0.0367 C.ar    
  11 C11           -1.1022     3.5562     0.0321 C.ar    
  12 C12            3.6296     0.6927    -0.0293 C.3     
  13 C13            1.8063    -1.8097    -0.0245 C.3     
  14 C14            1.9797    -2.2931     1.3923 C.2     
  15 N15            2.4045    -3.5502     1.6282 N.am    
  16 O16            1.7369    -1.5510     2.3203 O.2     
  17 C17            2.5841    -4.0533     3.0011 C.3     
  18 C18            1.6196    -5.2245     3.2045 C.3     
  19 C19            1.6696    -6.1536     2.0281 C.2     
  20 C20            2.1390    -5.8286     0.8471 C.2     
  21 C21            2.7014    -4.4763     0.5259 C.3     
  22 C22            4.1525     0.8152     1.4033 C.3     
  23 C23            1.1562    -7.5266     2.2118 C.ar    
  24 N24            0.6665    -7.9154     3.3911 N.ar    
  25 C25            5.6823     0.8297     1.3883 C.3     
  26 F26           -4.5919     4.5472     0.0495 F       
  27 C27           -4.9883     1.7604     0.0378 C.3     
  28 C28            0.2074    -9.1370     3.5606 C.ar    
  29 N29            0.2094   -10.0250     2.5862 N.ar    
  30 C30            0.6794    -9.7182     1.3817 C.ar    
  31 C31            1.1701    -8.4363     1.1536 C.ar    
  32 O32            0.6761   -10.6396     0.3876 O.3     
  33 C33            0.1502   -11.9307     0.7016 C.3     
  34 H34            1.6408     2.7944     0.0011 H       
  35 H35           -2.5959     0.5124     0.0179 H       
  36 H36           -2.1353     5.4248     0.0417 H       
  37 H37           -0.1224     4.0106     0.0294 H       
  38 H38            3.9973    -0.2327    -0.4724 H       
  39 H39            3.9792     1.5412    -0.6175 H       
  40 H40            1.0740    -2.4353    -0.5348 H       
  41 H41            2.7609    -1.8675    -0.5475 H       
  42 H42            3.6107    -4.3932     3.1377 H       
  43 H43            2.3590    -3.2619     3.7160 H       
  44 H44            1.8992    -5.7693     4.1063 H       
  45 H45            0.6057    -4.8410     3.3182 H       
  46 H46            2.1160    -6.5728     0.0648 H       
  47 H47            2.2547    -4.1057    -0.3967 H       
  48 H48            3.7821    -4.5507     0.4043 H       
  49 H49            3.7847     1.7407     1.8464 H       
  50 H50            3.8029    -0.0332     1.9915 H       
  51 H51            6.0319     1.6782     0.8001 H       
  52 H52            6.0549     0.9170     2.4090 H       
  53 H53            6.0501    -0.0958     0.9452 H       
  54 H54           -5.3131     1.6036     1.0664 H       
  55 H55           -5.6918     2.4212    -0.4686 H       
  56 H56           -4.9510     0.8028    -0.4814 H       
  57 H57           -0.1822    -9.4208     4.5271 H       
  58 H58            1.5586    -8.1554     0.1859 H       
  59 H59            0.2064   -12.5700    -0.1795 H       
  60 H60            0.7326   -12.3736     1.5095 H       
  61 H61           -0.8894   -11.8334     1.0141 H       
@<TRIPOS>BOND
   1    1    2 2
   2    1    3 1
   3    1    6 1
   4    2    5 1
   5    3    4 2
   6    3   34 1
   7    4    5 1
   8    4   12 1
   9    5   13 1
  10    6    7 ar
  11    6   11 ar
  12    7    8 ar
  13    7   35 1
  14    8    9 ar
  15    8   27 1
  16    9   10 ar
  17    9   26 1
  18   10   11 ar
  19   10   36 1
  20   11   37 1
  21   12   22 1
  22   12   38 1
  23   12   39 1
  24   13   14 1
  25   13   40 1
  26   13   41 1
  27   14   15 am
  28   14   16 2
  29   15   17 1
  30   15   21 1
  31   17   18 1
  32   17   42 1
  33   17   43 1
  34   18   19 1
  35   18   44 1
  36   18   45 1
  37   19   20 2
  38   19   23 1
  39   20   21 1
  40   20   46 1
  41   21   47 1
  42   21   48 1
  43   22   25 1
  44   22   49 1
  45   22   50 1
  46   23   24 ar
  47   23   31 ar
  48   24   28 ar
  49   25   51 1
  50   25   52 1
  51   25   53 1
  52   27   54 1
  53   27   55 1
  54   27   56 1
  55   28   29 ar
  56   28   57 1
  57   29   30 ar
  58   30   31 ar
  59   30   32 1
  60   31   58 1
  61   32   33 1
  62   33   59 1
  63   33   60 1
  64   33   61 1

#	End of record

