#	Name: ASD08390035
#	Creating user name:	WinNT
#	Creation time:	15. 06. 2019 21:19

#	Modifying user name:	WinNT
#	Modification time:	15. 06. 2019 21:19

#	Program:	/corina/corina34_cracker 3.40 0067  02.08.2006

@<TRIPOS>MOLECULE
ASD08390035
  47   50    0    0    0
SMALL
NO_CHARGES


@<TRIPOS>ATOM
   1 C1            -0.1798     1.4830    -0.0998 C.3     
   2 C2             0.0629    -0.0361    -0.1984 C.3     
   3 N3             1.1473     2.0157     0.2511 N.pl3   
   4 C4             2.0237     0.9640     0.3417 C.2     
   5 N5             1.4920    -0.1901     0.1063 N.2     
   6 C6             1.4609     3.3637     0.4571 C.ar    
   7 C7             2.2588     4.0396    -0.4568 C.ar    
   8 C8             3.4551     1.1365     0.6793 C.ar    
   9 C9             3.8868     2.2926     1.3290 C.ar    
  10 C10            5.2219     2.4476     1.6410 C.ar    
  11 C11            6.1317     1.4593     1.3101 C.ar    
  12 C12            5.7096     0.3106     0.6651 C.ar    
  13 C13            4.3760     0.1411     0.3539 C.ar    
  14 C14           -0.6408     2.0347    -1.4243 C.ar    
  15 C15           -1.9840     2.2790    -1.6415 C.ar    
  16 C16           -2.4068     2.7850    -2.8564 C.ar    
  17 C17           -1.4865     3.0472    -3.8540 C.ar    
  18 C18           -0.1433     2.8037    -3.6364 C.ar    
  19 C19            0.2801     2.3018    -2.4200 C.ar    
  20 C20            0.9700     4.0292     1.5728 C.ar    
  21 C21            1.2808     5.3598     1.7742 C.ar    
  22 C22            2.0809     6.0303     0.8643 C.ar    
  23 C23            2.5671     5.3701    -0.2516 C.ar    
  24 F24            2.3830     7.3321     1.0628 F       
  25 C25           -0.2362    -0.5294    -1.5906 C.2     
  26 O26           -1.3319    -0.9648    -1.8548 O.2     
  27 O27            0.7146    -0.4851    -2.5370 O.3     
  28 C28           -0.7906    -0.7831     0.8285 C.3     
  29 H29           -0.9035     1.7067     0.6839 H       
  30 H30            2.6382     3.5250    -1.3273 H       
  31 H31            3.1775     3.0651     1.5872 H       
  32 H32            5.5575     3.3424     2.1441 H       
  33 H33            7.1758     1.5853     1.5560 H       
  34 H34            6.4246    -0.4573     0.4090 H       
  35 H35            4.0477    -0.7562    -0.1497 H       
  36 H36           -2.7030     2.0741    -0.8621 H       
  37 H37           -3.4563     2.9752    -3.0263 H       
  38 H38           -1.8170     3.4418    -4.8034 H       
  39 H39            0.5757     3.0083    -4.4159 H       
  40 H40            1.3296     2.1116    -2.2501 H       
  41 H41            0.3454     3.5068     2.2823 H       
  42 H42            0.8993     5.8777     2.6417 H       
  43 H43            3.1912     5.8948    -0.9597 H       
  44 H44            0.4757    -0.8127    -3.4150 H       
  45 H45           -1.8450    -0.5802     0.6410 H       
  46 H46           -0.6061    -1.8540     0.7442 H       
  47 H47           -0.5288    -0.4471     1.8318 H       
@<TRIPOS>BOND
   1    1    2 1
   2    1    3 1
   3    1   14 1
   4    1   29 1
   5    2   25 1
   6    2   28 1
   7    2    5 1
   8    3    4 1
   9    3    6 1
  10    4    5 2
  11    4    8 1
  12    6    7 ar
  13    6   20 ar
  14    7   23 ar
  15    7   30 1
  16    8    9 ar
  17    8   13 ar
  18    9   10 ar
  19    9   31 1
  20   10   11 ar
  21   10   32 1
  22   11   12 ar
  23   11   33 1
  24   12   13 ar
  25   12   34 1
  26   13   35 1
  27   14   15 ar
  28   14   19 ar
  29   15   16 ar
  30   15   36 1
  31   16   17 ar
  32   16   37 1
  33   17   18 ar
  34   17   38 1
  35   18   19 ar
  36   18   39 1
  37   19   40 1
  38   20   21 ar
  39   20   41 1
  40   21   22 ar
  41   21   42 1
  42   22   23 ar
  43   22   24 1
  44   23   43 1
  45   25   26 2
  46   25   27 1
  47   27   44 1
  48   28   45 1
  49   28   46 1
  50   28   47 1

#	End of record

