#	Name: ASD03240474
#	Creating user name:	WinNT
#	Creation time:	15. 06. 2019 20:35

#	Modifying user name:	WinNT
#	Modification time:	15. 06. 2019 20:35

#	Program:	/corina/corina34_cracker 3.40 0067  02.08.2006

@<TRIPOS>MOLECULE
ASD03240474
  43   45    0    0    0
SMALL
NO_CHARGES


@<TRIPOS>ATOM
   1 C1             0.0330     1.4783    -0.0440 C.ar    
   2 C2            -2.3545     2.4336     2.2811 C.ar    
   3 C3            -1.4717     2.8755     1.3124 C.ar    
   4 C4            -1.3322     2.1133     0.0198 C.3     
   5 C5            -2.4861     3.1279     3.4668 C.ar    
   6 C6            -1.7280     4.2757     3.6867 C.ar    
   7 C7            -0.8408     4.7166     2.7075 C.ar    
   8 C8            -0.7169     4.0148     1.5255 C.ar    
   9 C9            -1.8657     5.0269     4.9600 C.2     
  10 C10           -1.1888     6.1601     5.3048 C.2     
  11 N11           -1.6016     6.5233     6.5358 N.pl3   
  12 N12           -2.5572     5.5958     6.9682 N.2     
  13 C13           -2.7235     4.7026     6.0290 C.2     
  14 C14            0.1584     0.1028     0.0152 C.ar    
  15 C15            1.1586     2.2714    -0.1676 C.ar    
  16 C16            2.4105     1.6899    -0.2325 C.ar    
  17 C17            2.5374     0.3124    -0.1732 C.ar    
  18 C18            1.4094    -0.4809    -0.0490 C.ar    
  19 F19            3.7608    -0.2572    -0.2369 F       
  20 C20           -1.5039     3.0731    -1.1593 C.3     
  21 C21           -1.4867     2.2810    -2.4682 C.3     
  22 N22           -1.6516     3.2025    -3.6003 N.3     
  23 C23           -1.6400     2.4756    -4.8768 C.3     
  24 H24           -2.9450     1.5461     2.1078 H       
  25 H25           -2.0964     1.3376    -0.0288 H       
  26 H26           -3.1759     2.7822     4.2225 H       
  27 H27           -0.2506     5.6059     2.8730 H       
  28 H28           -0.0290     4.3556     0.7658 H       
  29 H29           -0.4551     6.6734     4.7009 H       
  30 H30           -1.2901     7.2939     7.0358 H       
  31 H31           -3.3962     3.8586     6.0686 H       
  32 H32           -0.7216    -0.5157     0.1121 H       
  33 H33            1.0594     3.3459    -0.2138 H       
  34 H34            3.2897     2.3097    -0.3297 H       
  35 H35            1.5072    -1.5554    -0.0023 H       
  36 H36           -2.4544     3.5982    -1.0648 H       
  37 H37           -0.6880     3.7959    -1.1612 H       
  38 H38           -0.5363     1.7558    -2.5627 H       
  39 H39           -2.3026     1.5582    -2.4663 H       
  40 H40           -2.4947     3.7481    -3.5026 H       
  41 H41           -1.7638     3.1815    -5.6981 H       
  42 H42           -0.6906     1.9517    -4.9880 H       
  43 H43           -2.4569     1.7541    -4.8915 H       
@<TRIPOS>BOND
   1    1   14 ar
   2    1   15 ar
   3    1    4 1
   4    2    3 ar
   5    2    5 ar
   6    2   24 1
   7    3    4 1
   8    3    8 ar
   9    4   20 1
  10    4   25 1
  11    5    6 ar
  12    5   26 1
  13    6    7 ar
  14    6    9 1
  15    7    8 ar
  16    7   27 1
  17    8   28 1
  18    9   10 2
  19    9   13 1
  20   10   11 1
  21   10   29 1
  22   11   12 1
  23   11   30 1
  24   12   13 2
  25   13   31 1
  26   14   18 ar
  27   14   32 1
  28   15   16 ar
  29   15   33 1
  30   16   17 ar
  31   16   34 1
  32   17   18 ar
  33   17   19 1
  34   18   35 1
  35   20   21 1
  36   20   36 1
  37   20   37 1
  38   21   22 1
  39   21   38 1
  40   21   39 1
  41   22   23 1
  42   22   40 1
  43   23   41 1
  44   23   42 1
  45   23   43 1

#	End of record

