#	Name: ASD01882223
#	Creating user name:	WinNT
#	Creation time:	15. 06. 2019 19:44

#	Modifying user name:	WinNT
#	Modification time:	15. 06. 2019 19:44

#	Program:	/corina/corina34_cracker 3.40 0067  02.08.2006

@<TRIPOS>MOLECULE
ASD01882223
  48   51    0    0    0
SMALL
NO_CHARGES


@<TRIPOS>ATOM
   1 C1             0.7185     1.4949     1.0705 C.2     
   2 C2             0.7758     0.0315     1.1174 C.2     
   3 C3             1.2454    -0.6481    -0.0133 C.2     
   4 C4             1.6409     0.0943    -1.1416 C.2     
   5 C5             1.5735     1.4389    -1.1466 C.2     
   6 N6             1.1228     2.1424    -0.0681 N.pl3   
   7 N7             0.3393     2.4038     1.9503 N.2     
   8 C8             0.4800     3.6216     1.4131 C.2     
   9 C9             0.9651     3.4869     0.1623 C.2     
  10 C10            0.3635    -0.6839     2.2874 C.1     
  11 N11            0.0364    -1.2515     3.2155 N.1     
  12 C12            1.2787     4.6027    -0.8008 C.3     
  13 C13            2.6870     5.1334    -0.5254 C.3     
  14 F14            3.6154     4.1000    -0.6908 F       
  15 F15            2.9781     6.1692    -1.4196 F       
  16 F16            2.7552     5.6162     0.7858 F       
  17 N17            1.3199    -2.0286    -0.0210 N.pl3   
  18 C18            2.6167    -2.7076    -0.1472 C.3     
  19 C19            2.5430    -3.6986    -1.3130 C.3     
  20 C20            1.3573    -4.6426    -1.1007 C.3     
  21 C21            0.0582    -3.8340    -1.0711 C.3     
  22 C22            0.1044    -2.8445     0.1031 C.3     
  23 C23            1.3019    -5.6407    -2.2284 C.ar    
  24 C24            1.4013    -6.9973    -1.9595 C.ar    
  25 C25            1.3499    -7.9148    -3.0013 C.ar    
  26 C26            1.1998    -7.4722    -4.3033 C.ar    
  27 C27            1.1016    -6.1185    -4.5669 C.ar    
  28 C28            1.1464    -5.2046    -3.5304 C.ar    
  29 O29            1.5492    -7.4287    -0.6788 O.3     
  30 F30            1.4469    -9.2374    -2.7433 F       
  31 H31            2.0044    -0.4229    -2.0173 H       
  32 H32            1.8858     1.9762    -2.0299 H       
  33 H33            0.2469     4.5563     1.9012 H       
  34 H34            1.2255     4.2265    -1.8225 H       
  35 H35            0.5553     5.4079    -0.6720 H       
  36 H36            3.3970    -1.9718    -0.3419 H       
  37 H37            2.8395    -3.2442     0.7750 H       
  38 H38            2.4105    -3.1524    -2.2470 H       
  39 H39            3.4655    -4.2775    -1.3574 H       
  40 H40            1.4782    -5.1703    -0.1546 H       
  41 H41           -0.0509    -3.2866    -2.0074 H       
  42 H42           -0.7878    -4.5093    -0.9433 H       
  43 H43            0.1265    -3.3921     1.0453 H       
  44 H44           -0.7735    -2.1992     0.0736 H       
  45 H45            1.1597    -8.1843    -5.1142 H       
  46 H46            0.9851    -5.7746    -5.5840 H       
  47 H47            1.0645    -4.1481    -3.7390 H       
  48 H48            0.7140    -7.6009    -0.2228 H       
@<TRIPOS>BOND
   1    1    2 1
   2    1    6 1
   3    1    7 2
   4    2    3 2
   5    2   10 1
   6    3    4 1
   7    3   17 1
   8    4    5 2
   9    4   31 1
  10    5    6 1
  11    5   32 1
  12    6    9 1
  13    7    8 1
  14    8    9 2
  15    8   33 1
  16    9   12 1
  17   10   11 3
  18   12   13 1
  19   12   34 1
  20   12   35 1
  21   13   14 1
  22   13   15 1
  23   13   16 1
  24   17   18 1
  25   17   22 1
  26   18   19 1
  27   18   36 1
  28   18   37 1
  29   19   20 1
  30   19   38 1
  31   19   39 1
  32   20   21 1
  33   20   23 1
  34   20   40 1
  35   21   22 1
  36   21   41 1
  37   21   42 1
  38   22   43 1
  39   22   44 1
  40   23   24 ar
  41   23   28 ar
  42   24   25 ar
  43   24   29 1
  44   25   26 ar
  45   25   30 1
  46   26   27 ar
  47   26   45 1
  48   27   28 ar
  49   27   46 1
  50   28   47 1
  51   29   48 1

#	End of record

