#	Name: ASD01810362
#	Creating user name:	WinNT
#	Creation time:	15. 06. 2019 19:24

#	Modifying user name:	WinNT
#	Modification time:	15. 06. 2019 19:24

#	Program:	/corina/corina34_cracker 3.40 0067  02.08.2006

@<TRIPOS>MOLECULE
ASD01810362
  70   74    0    0    0
SMALL
NO_CHARGES


@<TRIPOS>ATOM
   1 C1            -0.0173     1.4248     0.0099 C.3     
   2 O2             0.0021    -0.0041     0.0020 O.3     
   3 C3            -1.1963    -0.6353     0.0101 C.ar    
   4 C4            -1.8305    -0.9570    -1.1875 C.ar    
   5 C5            -3.0759    -1.6129    -1.1795 C.ar    
   6 C6            -3.6817    -1.9436    -0.0125 C.ar    
   7 C7            -3.0688    -1.6330     1.2173 C.ar    
   8 C8            -1.8124    -0.9792     1.2309 C.ar    
   9 C9            -1.2070    -0.6731     2.4603 C.ar    
  10 C10           -1.8335    -1.0077     3.6224 C.ar    
  11 C11           -3.0688    -1.6511     3.6098 C.ar    
  12 C12           -3.6819    -1.9681     2.4356 C.ar    
  13 C13           -5.0153    -2.6451    -0.0310 C.3     
  14 N14           -6.0853    -1.6694     0.2157 N.3     
  15 C15           -7.4069    -2.2642    -0.0280 C.3     
  16 C16           -8.4941    -1.2433     0.3157 C.3     
  17 N17           -8.3045    -0.0361    -0.5006 N.3     
  18 C18           -6.9830     0.5587    -0.2569 C.3     
  19 C19           -5.8958    -0.4622    -0.6006 C.3     
  20 C20           -9.3301     0.8991    -0.2641 C.2     
  21 C21          -10.4048     0.7393     0.6223 C.2     
  22 N22          -11.1463     1.8163     0.5697 N.2     
  23 N23          -10.5728     2.7022    -0.3513 N.pl3   
  24 C24           -9.4508     2.1175    -0.8493 C.2     
  25 C25          -11.0879     4.0257    -0.7107 C.3     
  26 C26           -1.1946    -0.6082    -2.4698 C.2     
  27 O27           -0.1188    -0.0411    -2.4807 O.2     
  28 N28           -1.8050    -0.9177    -3.6309 N.am    
  29 C29           -1.1727    -0.5709    -4.9061 C.3     
  30 C30           -0.1855    -1.6708    -5.3016 C.3     
  31 C31            0.4750    -1.3086    -6.6333 C.3     
  32 C32           -0.5987    -1.1739    -7.7150 C.3     
  33 C33           -1.5859    -0.0740    -7.3195 C.3     
  34 C34           -2.2463    -0.4362    -5.9878 C.3     
  35 O35           -3.1684     0.5912    -5.6184 O.3     
  36 H36            1.0053     1.8021     0.0021 H       
  37 H37           -0.5445     1.7859    -0.8732 H       
  38 H38           -0.5275     1.7763     0.9067 H       
  39 H39           -3.5557    -1.8559    -2.1160 H       
  40 H40           -0.2490    -0.1750     2.4843 H       
  41 H41           -1.3659    -0.7712     4.5668 H       
  42 H42           -3.5451    -1.9067     4.5447 H       
  43 H43           -4.6398    -2.4670     2.4415 H       
  44 H44           -5.1666    -3.1121    -1.0042 H       
  45 H45           -5.0345    -3.4096     0.7457 H       
  46 H46           -7.4911    -2.5457    -1.0776 H       
  47 H47           -7.5282    -3.1490     0.5970 H       
  48 H48           -9.4744    -1.6723     0.1083 H       
  49 H49           -8.4271    -0.9824     1.3719 H       
  50 H50           -6.8616     1.4435    -0.8818 H       
  51 H51           -6.8988     0.8401     0.7927 H       
  52 H52           -4.9154    -0.0332    -0.3932 H       
  53 H53           -5.9628    -0.7232    -1.6568 H       
  54 H54          -10.5891    -0.1253     1.2428 H       
  55 H55           -8.7808     2.5429    -1.5817 H       
  56 H56          -10.6574     4.7757    -0.0471 H       
  57 H57          -10.8163     4.2537    -1.7414 H       
  58 H58          -12.1734     4.0325    -0.6110 H       
  59 H59           -2.6631    -1.3700    -3.6222 H       
  60 H60           -0.6406     0.3748    -4.8025 H       
  61 H61            0.5794    -1.7668    -4.5310 H       
  62 H62           -0.7175    -2.6165    -5.4052 H       
  63 H63            1.0070    -0.3629    -6.5297 H       
  64 H64            1.1783    -2.0922    -6.9151 H       
  65 H65           -0.1282    -0.9159    -8.6638 H       
  66 H66           -1.1307    -2.1196    -7.8186 H       
  67 H67           -1.0539     0.8717    -7.2159 H       
  68 H68           -2.3508     0.0220    -8.0902 H       
  69 H69           -2.7784    -1.3818    -6.0914 H       
  70 H70           -3.8781     0.7319    -6.2599 H       
@<TRIPOS>BOND
   1    1    2 1
   2    1   36 1
   3    1   37 1
   4    1   38 1
   5    2    3 1
   6    3    4 ar
   7    3    8 ar
   8    4    5 ar
   9    4   26 1
  10    5    6 ar
  11    5   39 1
  12    6    7 ar
  13    6   13 1
  14    7    8 ar
  15    7   12 ar
  16    8    9 ar
  17    9   10 ar
  18    9   40 1
  19   10   11 ar
  20   10   41 1
  21   11   12 ar
  22   11   42 1
  23   12   43 1
  24   13   14 1
  25   13   44 1
  26   13   45 1
  27   14   15 1
  28   14   19 1
  29   15   16 1
  30   15   46 1
  31   15   47 1
  32   16   17 1
  33   16   48 1
  34   16   49 1
  35   17   18 1
  36   17   20 1
  37   18   19 1
  38   18   50 1
  39   18   51 1
  40   19   52 1
  41   19   53 1
  42   20   21 1
  43   20   24 2
  44   21   22 2
  45   21   54 1
  46   22   23 1
  47   23   24 1
  48   23   25 1
  49   24   55 1
  50   25   56 1
  51   25   57 1
  52   25   58 1
  53   26   27 2
  54   26   28 am
  55   28   29 1
  56   28   59 1
  57   29   30 1
  58   29   34 1
  59   29   60 1
  60   30   31 1
  61   30   61 1
  62   30   62 1
  63   31   32 1
  64   31   63 1
  65   31   64 1
  66   32   33 1
  67   32   65 1
  68   32   66 1
  69   33   34 1
  70   33   67 1
  71   33   68 1
  72   34   35 1
  73   34   69 1
  74   35   70 1

#	End of record

