#	Name: ASD01148706
#	Creating user name:	WinNT
#	Creation time:	15. 06. 2019 19:03

#	Modifying user name:	WinNT
#	Modification time:	15. 06. 2019 19:03

#	Program:	/corina/corina34_cracker 3.40 0067  02.08.2006

@<TRIPOS>MOLECULE
ASD01148706
  51   54    0    0    0
SMALL
NO_CHARGES


@<TRIPOS>ATOM
   1 C1            -0.0187     1.5256     0.0104 C.3     
   2 C2             0.0021    -0.0041     0.0020 C.3     
   3 C3             0.7420    -0.5108     1.2417 C.3     
   4 C4             1.4168     2.0546    -0.0004 C.3     
   5 C5             2.1567     1.5481     1.2392 C.3     
   6 C6             3.5912     2.0797     1.2290 C.3     
   7 C7             4.3337     1.5700     2.4660 C.3     
   8 C8             4.3593     0.0409     2.4505 C.3     
   9 C9             5.0497    -0.4871     3.6946 C.3     
  10 C10            6.5394    -0.1446     3.8240 C.3     
  11 C11            7.0641    -1.2732     4.7536 C.3     
  12 C12            6.0946    -2.4421     4.6105 C.2     
  13 C13            5.1079    -2.0328     3.5574 C.3     
  14 C14            5.6467    -2.4060     2.1749 C.3     
  15 C15            3.6930    -2.5563     3.7016 C.3     
  16 C16            2.8788    -2.0108     2.5163 C.3     
  17 C17            2.9164    -0.4869     2.4716 C.3     
  18 C18            2.1779     0.0180     1.2313 C.3     
  19 C19            2.8945    -0.4760    -0.0270 C.3     
  20 S20            6.1241    -3.8218     5.4181 S.2     
  21 O21           -0.6874     1.9865     1.1862 O.3     
  22 H22           -0.5457     1.8867    -0.8727 H       
  23 H23           -1.0205    -0.3814     0.0097 H       
  24 H24            0.5124    -0.3556    -0.8947 H       
  25 H25            0.2318    -0.1589     2.1384 H       
  26 H26            0.7562    -1.6007     1.2361 H       
  27 H27            1.9269     1.7026    -0.8971 H       
  28 H28            1.4024     3.1445     0.0051 H       
  29 H29            1.6457     1.8990     2.1358 H       
  30 H30            4.1010     1.7322     0.3304 H       
  31 H31            3.5747     3.1696     1.2386 H       
  32 H32            5.3550     1.9506     2.4593 H       
  33 H33            3.8228     1.9158     3.3646 H       
  34 H34            4.8835    -0.3096     1.5614 H       
  35 H35            4.5077    -0.1836     4.5903 H       
  36 H36            7.0314    -0.1835     2.8522 H       
  37 H37            6.6730     0.8326     4.2880 H       
  38 H38            8.0639    -1.5773     4.4439 H       
  39 H39            7.0820    -0.9274     5.7872 H       
  40 H40            6.6482    -1.9938     2.0518 H       
  41 H41            5.6865    -3.4913     2.0813 H       
  42 H42            4.9893    -1.9989     1.4067 H       
  43 H43            3.6968    -3.6460     3.6783 H       
  44 H44            3.2621    -2.2062     4.6396 H       
  45 H45            3.2920    -2.4052     1.5880 H       
  46 H46            1.8440    -2.3394     2.6129 H       
  47 H47            2.4103    -0.0954     3.3541 H       
  48 H48            2.3680    -0.1148    -0.9104 H       
  49 H49            3.9173    -0.0992    -0.0341 H       
  50 H50            2.9088    -1.5659    -0.0328 H       
  51 H51           -1.6043     1.6884     1.2596 H       
@<TRIPOS>BOND
   1    1    2 1
   2    1    4 1
   3    1   21 1
   4    1   22 1
   5    2    3 1
   6    2   23 1
   7    2   24 1
   8    3   18 1
   9    3   25 1
  10    3   26 1
  11    4    5 1
  12    4   27 1
  13    4   28 1
  14    5    6 1
  15    5   18 1
  16    5   29 1
  17    6    7 1
  18    6   30 1
  19    6   31 1
  20    7    8 1
  21    7   32 1
  22    7   33 1
  23    8    9 1
  24    8   17 1
  25    8   34 1
  26    9   10 1
  27    9   13 1
  28    9   35 1
  29   10   11 1
  30   10   36 1
  31   10   37 1
  32   11   12 1
  33   11   38 1
  34   11   39 1
  35   12   13 1
  36   12   20 2
  37   13   14 1
  38   13   15 1
  39   14   40 1
  40   14   41 1
  41   14   42 1
  42   15   16 1
  43   15   43 1
  44   15   44 1
  45   16   17 1
  46   16   45 1
  47   16   46 1
  48   17   18 1
  49   17   47 1
  50   18   19 1
  51   19   48 1
  52   19   49 1
  53   19   50 1
  54   21   51 1

#	End of record

