#	Name: ASD04590647
#	Creating user name:	WinNT
#	Creation time:	15. 06. 2019 20:51

#	Modifying user name:	WinNT
#	Modification time:	15. 06. 2019 20:51

#	Program:	/corina/corina34_cracker 3.40 0067  02.08.2006

@<TRIPOS>MOLECULE
ASD04590647
  70   76    0    0    0
SMALL
NO_CHARGES


@<TRIPOS>ATOM
   1 N1            -2.3782    -2.7058     0.0204 N.ar    
   2 C2            -1.2117    -2.0738     0.0040 C.ar    
   3 N3            -0.0573    -2.7202    -0.0182 N.ar    
   4 C4            -0.0259    -4.0495    -0.0245 C.ar    
   5 C5            -1.2486    -4.7504    -0.0070 C.ar    
   6 C6            -2.4370    -4.0273     0.0156 C.ar    
   7 N7             0.9980    -4.9638    -0.0457 N.pl3   
   8 C8             0.4950    -6.2534    -0.0428 C.ar    
   9 C9            -0.9092    -6.1791    -0.0189 C.ar    
  10 C10            1.0915    -7.5075    -0.0583 C.ar    
  11 N11            0.3552    -8.6000    -0.0506 N.ar    
  12 C12           -0.9655    -8.5647    -0.0283 C.ar    
  13 C13           -1.6436    -7.3644    -0.0121 C.ar    
  14 N14           -1.2019    -0.6887     0.0098 N.pl3   
  15 C15           -2.4013     0.0175    -0.0802 C.ar    
  16 C16            2.4226    -4.6227    -0.0685 C.3     
  17 N17           -3.5340    -0.6390    -0.2721 N.ar    
  18 C18           -4.6918    -0.0124    -0.3634 C.ar    
  19 C19           -4.7605     1.3688    -0.2608 C.ar    
  20 C20           -3.5874     2.0945    -0.0583 C.ar    
  21 C21           -2.3937     1.4030     0.0384 C.ar    
  22 N22           -5.9924     2.0264    -0.3597 N.3     
  23 C23            2.7454    -3.7914    -1.3225 C.3     
  24 C24            3.2821    -2.4334    -0.8249 C.3     
  25 C25            3.8153    -2.7341     0.5980 C.3     
  26 C26            2.7744    -3.7409     1.1474 C.3     
  27 C27           -7.0988     1.0560    -0.5740 C.3     
  28 C28           -8.3462     1.8659    -0.9623 C.3     
  29 C29           -8.7433     2.7600     0.2158 C.3     
  30 C30           -7.5445     3.6098     0.6469 C.3     
  31 C31           -6.3515     2.6817     0.9261 C.3     
  32 C32           -6.8530     1.5217     1.8167 C.3     
  33 C33           -7.3468     0.4474     0.8254 C.3     
  34 N34           -9.8464     3.6413    -0.1898 N.3     
  35 C35          -10.3344     4.4316     0.9483 C.3     
  36 C36           -9.4425     4.5128    -1.3013 C.3     
  37 H37           -3.3898    -4.5356     0.0297 H       
  38 H38            2.1683    -7.5879    -0.0770 H       
  39 H39           -1.5222    -9.4902    -0.0233 H       
  40 H40           -2.7232    -7.3426     0.0064 H       
  41 H41           -0.3610    -0.2099     0.0765 H       
  42 H42            3.0241    -5.5316    -0.0581 H       
  43 H43           -5.5960    -0.5817    -0.5203 H       
  44 H44           -3.6110     3.1710     0.0253 H       
  45 H45           -1.4660     1.9332     0.1955 H       
  46 H46            3.5042    -4.2965    -1.9202 H       
  47 H47            1.8422    -3.6418    -1.9141 H       
  48 H48            4.0891    -2.0831    -1.4685 H       
  49 H49            2.4790    -1.6977    -0.7837 H       
  50 H50            4.8050    -3.1884     0.5516 H       
  51 H51            3.8331    -1.8278     1.2033 H       
  52 H52            1.8892    -3.2163     1.5070 H       
  53 H53            3.2107    -4.3447     1.9430 H       
  54 H54           -6.8485     0.3037    -1.3220 H       
  55 H55           -8.1237     2.4848    -1.8316 H       
  56 H56           -9.1649     1.1855    -1.1964 H       
  57 H57           -9.0656     2.1378     1.0507 H       
  58 H58           -7.2859     4.3071    -0.1500 H       
  59 H59           -7.7959     4.1634     1.5515 H       
  60 H60           -5.5095     3.2164     1.3658 H       
  61 H61           -6.0375     1.1304     2.4248 H       
  62 H62           -7.6730     1.8578     2.4513 H       
  63 H63           -8.4096     0.2554     0.9726 H       
  64 H64           -6.7741    -0.4721     0.9461 H       
  65 H65           -9.5227     5.0450     1.3395 H       
  66 H66          -11.1507     5.0753     0.6203 H       
  67 H67          -10.6921     3.7610     1.7296 H       
  68 H68           -9.1518     3.9012    -2.1553 H       
  69 H69          -10.2777     5.1547    -1.5816 H       
  70 H70           -8.5985     5.1291    -0.9916 H       
@<TRIPOS>BOND
   1    1    2 ar
   2    1    6 ar
   3    2    3 ar
   4    2   14 1
   5    3    4 ar
   6    4    5 ar
   7    4    7 1
   8    5    6 ar
   9    5    9 1
  10    6   37 1
  11    7    8 1
  12    7   16 1
  13    8    9 ar
  14    8   10 ar
  15    9   13 ar
  16   10   11 ar
  17   10   38 1
  18   11   12 ar
  19   12   13 ar
  20   12   39 1
  21   13   40 1
  22   14   15 1
  23   14   41 1
  24   15   17 ar
  25   15   21 ar
  26   16   23 1
  27   16   26 1
  28   16   42 1
  29   17   18 ar
  30   18   19 ar
  31   18   43 1
  32   19   20 ar
  33   19   22 1
  34   20   21 ar
  35   20   44 1
  36   21   45 1
  37   22   27 1
  38   22   31 1
  39   23   24 1
  40   23   46 1
  41   23   47 1
  42   24   25 1
  43   24   48 1
  44   24   49 1
  45   25   26 1
  46   25   50 1
  47   25   51 1
  48   26   52 1
  49   26   53 1
  50   27   28 1
  51   27   33 1
  52   27   54 1
  53   28   29 1
  54   28   55 1
  55   28   56 1
  56   29   30 1
  57   29   34 1
  58   29   57 1
  59   30   31 1
  60   30   58 1
  61   30   59 1
  62   31   32 1
  63   31   60 1
  64   32   33 1
  65   32   61 1
  66   32   62 1
  67   33   63 1
  68   33   64 1
  69   34   35 1
  70   34   36 1
  71   35   65 1
  72   35   66 1
  73   35   67 1
  74   36   68 1
  75   36   69 1
  76   36   70 1

#	End of record

