#	Name: ASD03330425
#	Creating user name:	WinNT
#	Creation time:	15. 06. 2019 20:37

#	Modifying user name:	WinNT
#	Modification time:	15. 06. 2019 20:37

#	Program:	/corina/corina34_cracker 3.40 0067  02.08.2006

@<TRIPOS>MOLECULE
ASD03330425
  56   59    0    0    0
SMALL
NO_CHARGES


@<TRIPOS>ATOM
   1 C1            -0.1673     1.6642    -0.3122 C.3     
   2 N2            -0.1932     0.1976    -0.2221 N.3     
   3 C3             0.3559    -0.4213    -1.4422 C.3     
   4 C4             1.6819     0.2307    -1.7379 C.2     
   5 N5             2.0899     1.4042    -1.1730 N.pl3   
   6 C6             1.2795     2.1659    -0.2186 C.3     
   7 C7             2.6738    -0.1819    -2.5649 C.2     
   8 N8             3.6710     0.7303    -2.4981 N.2     
   9 C9             3.3259     1.6848    -1.6626 C.2     
  10 C10            4.1453     2.8656    -1.3143 C.ar    
  11 C11            2.6672    -1.4039    -3.3884 C.2     
  12 O12            1.7066    -2.1494    -3.3626 O.2     
  13 C13            3.7190    -2.9102    -4.9890 C.3     
  14 N14            3.7256    -1.6954    -4.1702 N.am    
  15 C15           -1.5524    -0.2893     0.0492 C.3     
  16 C16            4.3038     3.2393     0.0208 C.ar    
  17 C17            5.0693     4.3410     0.3400 C.ar    
  18 C18            5.6813     5.0776    -0.6609 C.ar    
  19 C19            5.5288     4.7140    -1.9874 C.ar    
  20 C20            4.7688     3.6084    -2.3202 C.ar    
  21 F21            4.6200     3.2537    -3.6153 F       
  22 Cl22           6.6432     6.4629    -0.2495 Cl      
  23 C23            4.6524    -2.7226    -6.1872 C.3     
  24 C24            4.1985    -4.0949    -4.1472 C.3     
  25 C25            4.1574    -5.3693    -4.9963 C.3     
  26 N26            4.9356    -5.1460    -6.2224 N.am    
  27 C27            4.6164    -3.9814    -7.0594 C.3     
  28 S28            6.1498    -6.1868    -6.6524 S.o2    
  29 O29            7.0278    -5.3946    -7.4403 O.2     
  30 O30            6.5790    -6.7523    -5.4215 O.2     
  31 C31            5.3304    -7.4395    -7.6771 C.3     
  32 H32           -0.5982     1.9763    -1.2635 H       
  33 H33           -0.7512     2.0877     0.5051 H       
  34 H34            0.4983    -1.4899    -1.2814 H       
  35 H35           -0.3275    -0.2613    -2.2762 H       
  36 H36            1.3179     3.2264    -0.4675 H       
  37 H37            1.6580     2.0106     0.7916 H       
  38 H38            2.7067    -3.1034    -5.3440 H       
  39 H39            4.4917    -1.1008    -4.1908 H       
  40 H40           -2.2313     0.0820    -0.7184 H       
  41 H41           -1.5562    -1.3793     0.0413 H       
  42 H42           -1.8781     0.0681     1.0261 H       
  43 H43            3.8273     2.6668     0.8029 H       
  44 H44            5.1918     4.6306     1.3732 H       
  45 H45            6.0078     5.2925    -2.7635 H       
  46 H46            4.3239    -1.8643    -6.7734 H       
  47 H47            5.6695    -2.5542    -5.8332 H       
  48 H48            5.2199    -3.9136    -3.8124 H       
  49 H49            3.5470    -4.2135    -3.2814 H       
  50 H50            4.5903    -6.1970    -4.4344 H       
  51 H51            3.1248    -5.6021    -5.2563 H       
  52 H52            3.6212    -4.1010    -7.4876 H       
  53 H53            5.3522    -3.8933    -7.8588 H       
  54 H54            4.8789    -6.9600    -8.5455 H       
  55 H55            6.0640    -8.1745    -8.0083 H       
  56 H56            4.5560    -7.9368    -7.0930 H       
@<TRIPOS>BOND
   1    1    2 1
   2    1    6 1
   3    1   32 1
   4    1   33 1
   5    2    3 1
   6    2   15 1
   7    3    4 1
   8    3   34 1
   9    3   35 1
  10    4    5 1
  11    4    7 2
  12    5    6 1
  13    5    9 1
  14    6   36 1
  15    6   37 1
  16    7    8 1
  17    7   11 1
  18    8    9 2
  19    9   10 1
  20   10   16 ar
  21   10   20 ar
  22   11   12 2
  23   11   14 am
  24   13   14 1
  25   13   23 1
  26   13   24 1
  27   13   38 1
  28   14   39 1
  29   15   40 1
  30   15   41 1
  31   15   42 1
  32   16   17 ar
  33   16   43 1
  34   17   18 ar
  35   17   44 1
  36   18   19 ar
  37   18   22 1
  38   19   20 ar
  39   19   45 1
  40   20   21 1
  41   23   27 1
  42   23   46 1
  43   23   47 1
  44   24   25 1
  45   24   48 1
  46   24   49 1
  47   25   26 1
  48   25   50 1
  49   25   51 1
  50   26   27 1
  51   26   28 am
  52   27   52 1
  53   27   53 1
  54   28   29 2
  55   28   30 2
  56   28   31 1
  57   31   54 1
  58   31   55 1
  59   31   56 1

#	End of record

