#	Name: ASD03080047
#	Creating user name:	WinNT
#	Creation time:	15. 06. 2019 20:26

#	Modifying user name:	WinNT
#	Modification time:	15. 06. 2019 20:26

#	Program:	/corina/corina34_cracker 3.40 0067  02.08.2006

@<TRIPOS>MOLECULE
ASD03080047
  29   31    0    0    0
SMALL
NO_CHARGES


@<TRIPOS>ATOM
   1 C1            -0.0169     1.3917     0.0097 C.ar    
   2 C2             0.0021    -0.0041     0.0020 C.ar    
   3 C3             1.2132    -0.6845    -0.0127 C.ar    
   4 C4             2.4003     0.0159    -0.0199 C.ar    
   5 C5             2.3876     1.4123    -0.0127 C.ar    
   6 C6             1.1695     2.0978     0.0022 C.ar    
   7 O7             3.7988     3.4984    -0.0138 O.3     
   8 N8             4.9759     3.7900    -0.0230 N.2     
   9 C9             5.7127     2.7088    -0.0357 C.2     
  10 N10            4.8756     1.6506    -0.0338 N.2     
  11 C11            3.6585     2.1633    -0.0198 C.2     
  12 C12            7.8607     1.4318    -0.0632 C.ar    
  13 C13            7.1961     2.6561    -0.0500 C.ar    
  14 C14            7.9482     3.8334    -0.0509 C.ar    
  15 C15            9.3290     3.7306    -0.0650 C.ar    
  16 C16            9.9138     2.4778    -0.0776 C.ar    
  17 N17            9.1770     1.3835    -0.0768 N.ar    
  18 N18           -1.1971    -0.7169     0.0096 N.pl3   
  19 O19           -1.2038     2.0558     0.0189 O.3     
  20 H20            1.2247    -1.7645    -0.0183 H       
  21 H21            3.3406    -0.5153    -0.0306 H       
  22 H22            1.1564     3.1777     0.0077 H       
  23 H23            7.2917     0.5139    -0.0582 H       
  24 H24            7.4649     4.7992    -0.0412 H       
  25 H25            9.9425     4.6195    -0.0664 H       
  26 H26           10.9904     2.3937    -0.0886 H       
  27 H27           -2.0432    -0.2425     0.0203 H       
  28 H28           -1.1849    -1.6868     0.0043 H       
  29 H29           -1.5428     2.2431     0.9050 H       
@<TRIPOS>BOND
   1    1    2 ar
   2    1    6 ar
   3    1   19 1
   4    2    3 ar
   5    2   18 1
   6    3    4 ar
   7    3   20 1
   8    4    5 ar
   9    4   21 1
  10    5    6 ar
  11    5   11 1
  12    6   22 1
  13    7    8 1
  14    7   11 1
  15    8    9 2
  16    9   10 1
  17    9   13 1
  18   10   11 2
  19   12   13 ar
  20   12   17 ar
  21   12   23 1
  22   13   14 ar
  23   14   15 ar
  24   14   24 1
  25   15   16 ar
  26   15   25 1
  27   16   17 ar
  28   16   26 1
  29   18   27 1
  30   18   28 1
  31   19   29 1

#	End of record

