#	Name: ASD01900529
#	Creating user name:	WinNT
#	Creation time:	15. 06. 2019 19:52

#	Modifying user name:	WinNT
#	Modification time:	15. 06. 2019 19:52

#	Program:	/corina/corina34_cracker 3.40 0067  02.08.2006

@<TRIPOS>MOLECULE
ASD01900529
  26   28    0    0    0
SMALL
NO_CHARGES


@<TRIPOS>ATOM
   1 O1             0.0257     1.4081     0.3634 O.3     
   2 N2             0.0456    -0.0051     0.3598 N.2     
   3 C3             1.2466    -0.4258     0.0732 C.2     
   4 C4             2.0882     0.7635    -0.1287 C.ar    
   5 C5             1.2562     1.8763     0.0691 C.ar    
   6 C6             1.7826     3.1557    -0.0576 C.ar    
   7 C7             3.1132     3.3237    -0.3755 C.ar    
   8 C8             3.9361     2.2244    -0.5717 C.ar    
   9 C9             3.4328     0.9483    -0.4504 C.ar    
  10 N10            1.6546    -1.7494    -0.0227 N.pl3   
  11 C11            0.7155    -2.7804     0.0862 C.ar    
  12 C12           -0.5996    -2.5676    -0.3067 C.ar    
  13 C13           -1.5256    -3.5876    -0.1981 C.ar    
  14 C14           -1.1423    -4.8218     0.3030 C.ar    
  15 C15            0.1680    -5.0351     0.6949 C.ar    
  16 C16            1.0981    -4.0198     0.5821 C.ar    
  17 F17           -2.0489    -5.8178     0.4094 F       
  18 Cl18          -3.1696    -3.3230    -0.6889 Cl      
  19 H19            1.1497     4.0179     0.0925 H       
  20 H20            3.5185     4.3200    -0.4731 H       
  21 H21            4.9769     2.3700    -0.8207 H       
  22 H22            4.0763     0.0945    -0.6031 H       
  23 H23            2.5908    -1.9592    -0.1653 H       
  24 H24           -0.8984    -1.6057    -0.6965 H       
  25 H25            0.4646    -5.9975     1.0851 H       
  26 H26            2.1212    -4.1884     0.8840 H       
@<TRIPOS>BOND
   1    1    2 1
   2    1    5 1
   3    2    3 2
   4    3    4 1
   5    3   10 1
   6    4    5 ar
   7    4    9 ar
   8    5    6 ar
   9    6    7 ar
  10    6   19 1
  11    7    8 ar
  12    7   20 1
  13    8    9 ar
  14    8   21 1
  15    9   22 1
  16   10   11 1
  17   10   23 1
  18   11   12 ar
  19   11   16 ar
  20   12   13 ar
  21   12   24 1
  22   13   14 ar
  23   13   18 1
  24   14   15 ar
  25   14   17 1
  26   15   16 ar
  27   15   25 1
  28   16   26 1

#	End of record

