#	Name: ASD01914133
#	Creating user name:	WinNT
#	Creation time:	15. 06. 2019 20:02

#	Modifying user name:	WinNT
#	Modification time:	15. 06. 2019 20:02

#	Program:	/corina/corina34_cracker 3.40 0067  02.08.2006

@<TRIPOS>MOLECULE
ASD01914133
  48   51    0    0    0
SMALL
NO_CHARGES


@<TRIPOS>ATOM
   1 C1             2.0779     0.5852     0.6666 C.2     
   2 C2             1.7286    -0.8403     0.6156 C.2     
   3 N3             0.5222    -1.3541     0.4246 N.2     
   4 C4             0.6898    -2.6843     0.4560 C.2     
   5 N5             1.9531    -2.9190     0.6586 N.2     
   6 O6             2.5708    -1.8791     0.7478 O.3     
   7 C7            -0.3911    -3.7207     0.2868 C.3     
   8 C8            -0.0707    -4.5999    -0.9242 C.3     
   9 C9            -1.1844    -5.6318    -1.1164 C.3     
  10 C10           -1.2647    -6.5276     0.1237 C.3     
  11 N11           -1.4278    -5.6779     1.3111 N.am    
  12 C12           -0.4623    -4.5948     1.5429 C.3     
  13 C13            0.0228    -7.3445     0.2505 C.3     
  14 C14           -2.4438    -5.8878     2.1715 C.2     
  15 C15           -2.5252    -5.1058     3.4255 C.ar    
  16 C16           -1.4053    -4.9442     4.2444 C.ar    
  17 C17           -1.5268    -4.2025     5.4110 C.ar    
  18 N18           -2.6815    -3.6549     5.7485 N.ar    
  19 C19           -3.7612    -3.7843     5.0027 C.ar    
  20 C20           -3.7270    -4.5021     3.8209 C.ar    
  21 O21           -3.2930    -6.7193     1.9176 O.2     
  22 C22            3.3369     1.1078     0.8659 C.2     
  23 C23            3.2131     2.5030     0.8414 C.2     
  24 C24            1.9090     2.7997     0.6320 C.2     
  25 N25            1.2086     1.6401     0.5180 N.pl3   
  26 Cl26           4.5024     3.6476     1.0440 Cl      
  27 F27           -4.8386    -4.6284     3.0636 F       
  28 O28           -0.4463    -4.0376     6.2158 O.3     
  29 C29           -0.6334    -3.2641     7.4027 C.3     
  30 H30           -1.3496    -3.2250     0.1331 H       
  31 H31            0.0048    -3.9769    -1.8154 H       
  32 H32            0.8762    -5.1140    -0.7594 H       
  33 H33           -2.1357    -5.1186    -1.2566 H       
  34 H34           -0.9673    -6.2424    -1.9928 H       
  35 H35           -2.1186    -7.1991     0.0348 H       
  36 H36            0.5203    -5.0192     1.7489 H       
  37 H37           -0.7870    -3.9911     2.3903 H       
  38 H38            0.8734    -6.6696     0.3455 H       
  39 H39           -0.0363    -7.9811     1.1333 H       
  40 H40            0.1484    -7.9648    -0.6369 H       
  41 H41           -0.4594    -5.3899     3.9740 H       
  42 H42           -4.6842    -3.3201     5.3171 H       
  43 H43            4.2480     0.5472     1.0140 H       
  44 H44            1.4939     3.7943     0.5623 H       
  45 H45            0.2536     1.5688     0.3640 H       
  46 H46           -0.9545    -2.2578     7.1337 H       
  47 H47           -1.3941    -3.7337     8.0262 H       
  48 H48            0.3057    -3.2108     7.9534 H       
@<TRIPOS>BOND
   1    1    2 1
   2    1   22 2
   3    1   25 1
   4    2    3 2
   5    2    6 1
   6    3    4 1
   7    4    5 2
   8    4    7 1
   9    5    6 1
  10    7    8 1
  11    7   12 1
  12    7   30 1
  13    8    9 1
  14    8   31 1
  15    8   32 1
  16    9   10 1
  17    9   33 1
  18    9   34 1
  19   10   11 1
  20   10   13 1
  21   10   35 1
  22   11   12 1
  23   11   14 am
  24   12   36 1
  25   12   37 1
  26   13   38 1
  27   13   39 1
  28   13   40 1
  29   14   15 1
  30   14   21 2
  31   15   16 ar
  32   15   20 ar
  33   16   17 ar
  34   16   41 1
  35   17   18 ar
  36   17   28 1
  37   18   19 ar
  38   19   20 ar
  39   19   42 1
  40   20   27 1
  41   22   23 1
  42   22   43 1
  43   23   24 2
  44   23   26 1
  45   24   25 1
  46   24   44 1
  47   25   45 1
  48   28   29 1
  49   29   46 1
  50   29   47 1
  51   29   48 1

#	End of record

