#	Name: ASD08170163
#	Creating user name:	WinNT
#	Creation time:	15. 06. 2019 21:17

#	Modifying user name:	WinNT
#	Modification time:	15. 06. 2019 21:17

#	Program:	/corina/corina34_cracker 3.40 0067  02.08.2006

@<TRIPOS>MOLECULE
ASD08170163
  47   49    0    0    0
SMALL
NO_CHARGES


@<TRIPOS>ATOM
   1 N1            -0.0150     1.2583     0.0090 N.2     
   2 N2             0.0021    -0.0041     0.0020 N.2     
   3 C3             1.1271     1.8769     0.0014 C.2     
   4 S4             2.3826     0.7116    -0.0169 S.3     
   5 C5             1.1681    -0.5677    -0.0121 C.2     
   6 C6             1.4387    -2.0502    -0.0217 C.3     
   7 C7             1.5173    -2.5450    -1.4674 C.3     
   8 S8             1.8430    -4.3295    -1.4789 S.3     
   9 C9             1.9004    -4.7224    -3.2489 C.3     
  10 C10            2.1718    -6.2170    -3.4310 C.3     
  11 C11            2.2195    -6.5434    -4.9015 C.2     
  12 N12            3.2720    -6.5210    -5.6525 N.2     
  13 S13            0.8503    -7.0315    -5.9023 S.3     
  14 C14            1.9435    -7.1404    -7.2837 C.2     
  15 N15            3.1369    -6.8239    -6.8691 N.2     
  16 N16            1.5954    -7.5027    -8.5765 N.pl3   
  17 N17            1.3017     3.2566     0.0071 N.am    
  18 C18            0.2284     4.0717     0.0222 C.2     
  19 O19           -0.8897     3.6019     0.0309 O.2     
  20 C20            0.4176     5.5667     0.0285 C.3     
  21 C21           -0.9288     6.2434     0.0456 C.ar    
  22 C22           -1.2879     7.0942    -0.9831 C.ar    
  23 C23           -2.5229     7.7150    -0.9674 C.ar    
  24 C24           -3.3990     7.4846     0.0768 C.ar    
  25 C25           -3.0403     6.6331     1.1049 C.ar    
  26 C26           -1.8070     6.0089     1.0870 C.ar    
  27 C27            1.2096     5.9754     1.2721 C.3     
  28 H28            2.3840    -2.2503     0.4827 H       
  29 H29            0.6331    -2.5700     0.4969 H       
  30 H30            0.5720    -2.3449    -1.9718 H       
  31 H31            2.3230    -2.0252    -1.9860 H       
  32 H32            0.9455    -4.4678    -3.7088 H       
  33 H33            2.6965    -4.1481    -3.7229 H       
  34 H34            3.1267    -6.4716    -2.9712 H       
  35 H35            1.3758    -6.7912    -2.9570 H       
  36 H36            0.6750    -7.7255    -8.7866 H       
  37 H37            2.2723    -7.5332    -9.2706 H       
  38 H38            2.1959     3.6323     0.0002 H       
  39 H39            0.9641     5.8675    -0.8654 H       
  40 H40           -0.6033     7.2742    -1.7988 H       
  41 H41           -2.8031     8.3803    -1.7706 H       
  42 H42           -4.3637     7.9701     0.0894 H       
  43 H43           -3.7247     6.4533     1.9208 H       
  44 H44           -1.5268     5.3436     1.8903 H       
  45 H45            2.1835     5.4859     1.2597 H       
  46 H46            1.3465     7.0567     1.2766 H       
  47 H47            0.6631     5.6746     2.1660 H       
@<TRIPOS>BOND
   1    1    2 1
   2    1    3 2
   3    2    5 2
   4    3    4 1
   5    3   17 1
   6    4    5 1
   7    5    6 1
   8    6    7 1
   9    6   28 1
  10    6   29 1
  11    7    8 1
  12    7   30 1
  13    7   31 1
  14    8    9 1
  15    9   10 1
  16    9   32 1
  17    9   33 1
  18   10   11 1
  19   10   34 1
  20   10   35 1
  21   11   12 2
  22   11   13 1
  23   12   15 1
  24   13   14 1
  25   14   15 2
  26   14   16 1
  27   16   36 1
  28   16   37 1
  29   17   18 am
  30   17   38 1
  31   18   19 2
  32   18   20 1
  33   20   21 1
  34   20   27 1
  35   20   39 1
  36   21   22 ar
  37   21   26 ar
  38   22   23 ar
  39   22   40 1
  40   23   24 ar
  41   23   41 1
  42   24   25 ar
  43   24   42 1
  44   25   26 ar
  45   25   43 1
  46   26   44 1
  47   27   45 1
  48   27   46 1
  49   27   47 1

#	End of record

