#	Name: ASD05490043
#	Creating user name:	WinNT
#	Creation time:	15. 06. 2019 21:01

#	Modifying user name:	WinNT
#	Modification time:	15. 06. 2019 21:01

#	Program:	/corina/corina34_cracker 3.40 0067  02.08.2006

@<TRIPOS>MOLECULE
ASD05490043
  66   70    0    0    0
SMALL
NO_CHARGES


@<TRIPOS>ATOM
   1 O1            -0.0173     1.4248     0.0099 O.3     
   2 N2             2.7241     5.3595     0.0030 N.pl3   
   3 N3             2.2883     1.3280    -0.0127 N.ar    
   4 C4             3.4877     1.9005    -0.0215 C.ar    
   5 C5             1.1818     2.0565     0.0018 C.ar    
   6 N6             1.2068     3.3779     0.0082 N.ar    
   7 C7             2.3634     4.0326     0.0003 C.ar    
   8 C8             3.5624     3.3026    -0.0151 C.ar    
   9 N9             4.6391     1.1308    -0.0361 N.pl3   
  10 C10            4.0899     5.4129    -0.0163 C.2     
  11 N11            4.5806     4.2015    -0.0210 N.2     
  12 C12            1.8119     6.5058     0.0175 C.3     
  13 C13            1.5133     6.8921     1.4432 C.ar    
  14 C14            0.4413     6.3172     2.1025 C.ar    
  15 C15            0.0021    -0.0041     0.0020 C.3     
  16 C16           -1.4333    -0.5336     0.0129 C.3     
  17 C17           -1.4126    -2.0635     0.0045 C.3     
  18 C18           -2.8479    -2.5931     0.0153 C.3     
  19 C19            2.3156     7.8158     2.0891 C.ar    
  20 C20            2.0479     8.1734     3.3944 C.ar    
  21 C21            0.9648     7.6015     4.0631 C.ar    
  22 C22            0.1625     6.6665     3.4077 C.ar    
  23 C23            0.6723     7.9798     5.4624 C.2     
  24 N24            1.3526     8.8336     6.1724 N.2     
  25 C25            0.9451     9.0460     7.4024 C.2     
  26 C26           -0.1324     8.3538     7.7873 C.2     
  27 S27           -0.6570     7.3535     6.4343 S.3     
  28 C28           -1.2673    10.7536     8.6546 C.3     
  29 C29           -1.9885    11.8726     9.4287 C.3     
  30 C30           -2.9525    11.1413    10.3909 C.3     
  31 C31           -2.3217     9.7309    10.5077 C.3     
  32 N32           -1.8198     9.4683     9.1346 N.3     
  33 C33           -0.7887     8.4221     9.1422 C.3     
  34 O34            4.8243     6.5500    -0.0203 O.3     
  35 C35            6.2458     6.4042    -0.0300 C.3     
  36 H36            4.5753     0.1629    -0.0401 H       
  37 H37            5.5091     1.5596    -0.0425 H       
  38 H38            2.2770     7.3467    -0.4969 H       
  39 H39            0.8842     6.2383    -0.4884 H       
  40 H40           -0.1788     5.5937     1.5941 H       
  41 H41            0.5123    -0.3556    -0.8948 H       
  42 H42            0.5293    -0.3651     0.8851 H       
  43 H43           -1.9435    -0.1821     0.9097 H       
  44 H44           -1.9605    -0.1726    -0.8702 H       
  45 H45           -0.9024    -2.4150    -0.8923 H       
  46 H46           -0.8854    -2.4246     0.8875 H       
  47 H47           -2.8332    -3.6829     0.0093 H       
  48 H48           -3.3581    -2.2415     0.9121 H       
  49 H49           -3.3751    -2.2320    -0.8677 H       
  50 H50            3.1536     8.2577     1.5704 H       
  51 H51            2.6754     8.8941     3.8977 H       
  52 H52           -0.6774     6.2206     3.9197 H       
  53 H53            1.4491     9.7366     8.0623 H       
  54 H54           -1.4533    10.8618     7.5861 H       
  55 H55           -0.1964    10.7949     8.8539 H       
  56 H56           -1.2693    12.4665     9.9928 H       
  57 H57           -2.5486    12.5072     8.7420 H       
  58 H58           -2.9760    11.6350    11.3624 H       
  59 H59           -3.9532    11.0820     9.9629 H       
  60 H60           -1.4997     9.7353    11.2235 H       
  61 H61           -3.0747     8.9949    10.7894 H       
  62 H62           -1.2481     7.4608     9.3722 H       
  63 H63           -0.0388     8.6564     9.8978 H       
  64 H64            6.5608     5.8553     0.8575 H       
  65 H65            6.5488     5.8567    -0.9224 H       
  66 H66            6.7121     7.3894    -0.0323 H       
@<TRIPOS>BOND
   1    1   15 1
   2    1    5 1
   3    2   12 1
   4    2    7 1
   5    2   10 1
   6    3    4 ar
   7    3    5 ar
   8    4    9 1
   9    4    8 ar
  10    5    6 ar
  11    6    7 ar
  12    7    8 ar
  13    8   11 1
  14    9   36 1
  15    9   37 1
  16   10   11 2
  17   10   34 1
  18   12   13 1
  19   12   38 1
  20   12   39 1
  21   13   19 ar
  22   13   14 ar
  23   14   22 ar
  24   14   40 1
  25   15   16 1
  26   15   41 1
  27   15   42 1
  28   16   17 1
  29   16   43 1
  30   16   44 1
  31   17   18 1
  32   17   45 1
  33   17   46 1
  34   18   47 1
  35   18   48 1
  36   18   49 1
  37   19   20 ar
  38   19   50 1
  39   20   21 ar
  40   20   51 1
  41   21   22 ar
  42   21   23 1
  43   22   52 1
  44   23   24 2
  45   23   27 1
  46   24   25 1
  47   25   26 2
  48   25   53 1
  49   26   27 1
  50   26   33 1
  51   28   29 1
  52   28   32 1
  53   28   54 1
  54   28   55 1
  55   29   30 1
  56   29   56 1
  57   29   57 1
  58   30   31 1
  59   30   58 1
  60   30   59 1
  61   31   32 1
  62   31   60 1
  63   31   61 1
  64   32   33 1
  65   33   62 1
  66   33   63 1
  67   34   35 1
  68   35   64 1
  69   35   65 1
  70   35   66 1

#	End of record

