#	Name: ASD01916010
#	Creating user name:	WinNT
#	Creation time:	15. 06. 2019 20:06

#	Modifying user name:	WinNT
#	Modification time:	15. 06. 2019 20:06

#	Program:	/corina/corina34_cracker 3.40 0067  02.08.2006

@<TRIPOS>MOLECULE
ASD01916010
  41   43    0    0    0
SMALL
NO_CHARGES


@<TRIPOS>ATOM
   1 C1            -0.0246     1.4107    -0.0929 C.ar    
   2 C2            -0.0007     0.0090    -0.0582 C.ar    
   3 C3            -1.2046    -0.6667    -0.0218 C.ar    
   4 C4            -2.3953     0.0616    -0.0208 C.ar    
   5 C5            -3.6885    -0.6549     0.0181 C.2     
   6 N6            -4.8382     0.0363     0.1482 N.am    
   7 O7            -3.7145    -1.8672    -0.0673 O.2     
   8 C8            -6.1248    -0.6591     0.0618 C.3     
   9 C9             1.1968     2.1572    -0.1319 C.1     
  10 C10            2.1982     2.7693    -0.1638 C.1     
  11 C11            3.4196     3.5158    -0.2028 C.ar    
  12 C12            3.3881     4.9124    -0.2373 C.ar    
  13 C13            5.8253     3.5774    -0.2385 C.ar    
  14 C14            4.5704     5.6256    -0.2748 C.ar    
  15 N15           -2.3827     1.3899    -0.0538 N.ar    
  16 C16           -1.2613     2.0702    -0.0949 C.ar    
  17 C17            4.6513     2.8502    -0.2007 C.ar    
  18 C18            5.7858     4.9595    -0.2788 C.ar    
  19 C19           -7.3446     0.2663     0.2302 C.3     
  20 O20           -7.9126    -0.4693    -0.8720 O.3     
  21 C21           -6.6236    -0.8672    -1.3807 C.3     
  22 C22           -4.8014     1.4830     0.3762 C.3     
  23 C23           -6.1820    -1.9202     0.9262 C.3     
  24 F24            4.6917     1.5004    -0.1614 F       
  25 F25            4.5419     6.9759    -0.3082 F       
  26 H26            0.9359    -0.5287    -0.0602 H       
  27 H27           -1.2245    -1.7462     0.0052 H       
  28 H28            2.4418     5.4328    -0.2350 H       
  29 H29            6.7762     3.0654    -0.2415 H       
  30 H30           -1.2914     3.1495    -0.1209 H       
  31 H31            6.7069     5.5226    -0.3082 H       
  32 H32           -7.8754     0.1292     1.1723 H       
  33 H33           -7.1392     1.3124     0.0030 H       
  34 H34           -6.1981    -0.1673    -2.0997 H       
  35 H35           -6.5826    -1.9035    -1.7162 H       
  36 H36           -4.7085     1.9991    -0.5793 H       
  37 H37           -5.7208     1.7964     0.8706 H       
  38 H38           -3.9473     1.7297     1.0070 H       
  39 H39           -6.0199    -1.6527     1.9703 H       
  40 H40           -7.1597    -2.3901     0.8191 H       
  41 H41           -5.4072    -2.6164     0.6049 H       
@<TRIPOS>BOND
   1    1    2 ar
   2    1    9 1
   3    1   16 ar
   4    2    3 ar
   5    2   26 1
   6    3    4 ar
   7    3   27 1
   8    4   15 ar
   9    4    5 1
  10    5    6 am
  11    5    7 2
  12    6    8 1
  13    6   22 1
  14    8   19 1
  15    8   23 1
  16    8   21 1
  17    9   10 3
  18   10   11 1
  19   11   12 ar
  20   11   17 ar
  21   12   14 ar
  22   12   28 1
  23   13   18 ar
  24   13   17 ar
  25   13   29 1
  26   14   25 1
  27   14   18 ar
  28   15   16 ar
  29   16   30 1
  30   17   24 1
  31   18   31 1
  32   19   20 1
  33   19   32 1
  34   19   33 1
  35   20   21 1
  36   21   34 1
  37   21   35 1
  38   22   36 1
  39   22   37 1
  40   22   38 1
  41   23   39 1
  42   23   40 1
  43   23   41 1

#	End of record

