#	Name: ASD05380037
#	Creating user name:	WinNT
#	Creation time:	15. 06. 2019 20:59

#	Modifying user name:	WinNT
#	Modification time:	15. 06. 2019 20:59

#	Program:	/corina/corina34_cracker 3.40 0067  02.08.2006

@<TRIPOS>MOLECULE
ASD05380037
  46   50    0    0    0
SMALL
NO_CHARGES


@<TRIPOS>ATOM
   1 C1            -0.2259     1.5759    -0.3885 C.ar    
   2 C2            -0.0888     0.1881    -0.6182 C.ar    
   3 C3             0.7617     2.4579    -0.8296 C.ar    
   4 C4             1.8691     1.9621    -1.4899 C.ar    
   5 C5             2.0041     0.6001    -1.7155 C.ar    
   6 C6             1.0398    -0.2862    -1.2877 C.ar    
   7 F7             0.6354     3.7854    -0.6131 F       
   8 N8            -1.0610    -0.6507    -0.1801 N.2     
   9 C9            -2.1108    -0.2088     0.4432 C.2     
  10 N10           -2.3244     1.1090     0.7063 N.am    
  11 C11           -1.4223     2.0428     0.3241 C.2     
  12 C12           -3.4854     1.5021     1.3839 C.ar    
  13 C13           -4.6399     1.7990     0.6716 C.ar    
  14 C14           -3.4861     1.5903     2.7697 C.ar    
  15 C15           -4.6326     1.9783     3.4350 C.ar    
  16 C16           -5.7792     2.2783     2.7225 C.ar    
  17 C17           -5.7832     2.1864     1.3427 C.ar    
  18 C18           -3.1453    -1.2058     0.8977 C.3     
  19 N19           -3.2479    -2.2862    -0.0864 N.pl3   
  20 C20           -4.4187    -3.0164    -0.1929 C.ar    
  21 N21           -5.4594    -2.7507     0.5900 N.ar    
  22 O22           -1.6005     3.2251     0.5533 O.2     
  23 C23           -4.5368    -4.0521    -1.1350 C.ar    
  24 C24           -5.7503    -4.7582    -1.1961 C.ar    
  25 N25           -6.7343    -4.4241    -0.3678 N.ar    
  26 C26           -6.5803    -3.4422     0.4955 C.ar    
  27 N27           -3.7170    -4.5854    -2.0725 N.2     
  28 C28           -4.3348    -5.5501    -2.6899 C.2     
  29 N29           -5.5928    -5.6958    -2.1852 N.pl3   
  30 C30           -2.7333    -1.7869     2.2518 C.3     
  31 H31            2.6360     2.6405    -1.8336 H       
  32 H32            2.8762     0.2296    -2.2337 H       
  33 H33            1.1574    -1.3443    -1.4695 H       
  34 H34           -4.6437     1.7274    -0.4060 H       
  35 H35           -2.5912     1.3555     3.3268 H       
  36 H36           -4.6338     2.0471     4.5128 H       
  37 H37           -6.6746     2.5808     3.2450 H       
  38 H38           -6.6802     2.4214     0.7890 H       
  39 H39           -4.1108    -0.7092     0.9941 H       
  40 H40           -2.4952    -2.4896    -0.6635 H       
  41 H41           -7.4014    -3.1932     1.1514 H       
  42 H42           -3.9131    -6.1472    -3.4849 H       
  43 H43           -6.2549    -6.3439    -2.4723 H       
  44 H44           -2.5658    -0.9752     2.9597 H       
  45 H45           -3.5252    -2.4365     2.6245 H       
  46 H46           -1.8152    -2.3630     2.1357 H       
@<TRIPOS>BOND
   1    1    2 ar
   2    1    3 ar
   3    1   11 1
   4    2    8 1
   5    2    6 ar
   6    3    4 ar
   7    3    7 1
   8    4    5 ar
   9    4   31 1
  10    5    6 ar
  11    5   32 1
  12    6   33 1
  13    8    9 2
  14    9   10 1
  15    9   18 1
  16   10   11 am
  17   10   12 1
  18   11   22 2
  19   12   13 ar
  20   12   14 ar
  21   13   17 ar
  22   13   34 1
  23   14   15 ar
  24   14   35 1
  25   15   16 ar
  26   15   36 1
  27   16   17 ar
  28   16   37 1
  29   17   38 1
  30   18   19 1
  31   18   30 1
  32   18   39 1
  33   19   20 1
  34   19   40 1
  35   20   21 ar
  36   20   23 ar
  37   21   26 ar
  38   23   24 ar
  39   23   27 1
  40   24   25 ar
  41   24   29 1
  42   25   26 ar
  43   26   41 1
  44   27   28 2
  45   28   29 1
  46   28   42 1
  47   29   43 1
  48   30   44 1
  49   30   45 1
  50   30   46 1

#	End of record

