#	Name: ASD03430738
#	Creating user name:	WinNT
#	Creation time:	15. 06. 2019 20:41

#	Modifying user name:	WinNT
#	Modification time:	15. 06. 2019 20:41

#	Program:	/corina/corina34_cracker 3.40 0067  02.08.2006

@<TRIPOS>MOLECULE
ASD03430738
  58   63    0    0    0
SMALL
NO_CHARGES


@<TRIPOS>ATOM
   1 C1            -0.0167     1.3820     0.0096 C.ar    
   2 C2             0.0021    -0.0041     0.0020 C.ar    
   3 C3             1.2028    -0.6819    -0.0124 C.ar    
   4 C4             2.4086     0.0128    -0.0111 C.ar    
   5 C5             2.3860     1.4039    -0.0103 C.ar    
   6 C6             1.1815     2.0867     0.0020 C.ar    
   7 O7             3.4714    -0.8417     0.0039 O.3     
   8 C8             1.5511    -2.1459    -0.0415 C.3     
   9 C9             3.0381    -2.1475    -0.4222 C.3     
  10 C10            0.4258    -3.8580     1.0191 C.ar    
  11 C11            1.3101    -2.8143     1.2798 C.ar    
  12 C12            0.7217    -2.9106    -1.0324 C.2     
  13 N13            0.1024    -3.8885    -0.3417 N.am    
  14 O14            0.6273    -2.6911    -2.2215 O.2     
  15 C15            1.7690    -2.5855     2.5582 C.ar    
  16 C16            1.3519    -3.3964     3.6039 C.ar    
  17 C17            0.4692    -4.4411     3.3562 C.ar    
  18 C18            0.0102    -4.6706     2.0695 C.ar    
  19 C19           -0.8029    -4.8692    -0.9457 C.3     
  20 O20           -1.2112     2.0356     0.0189 O.3     
  21 O21            1.1868     3.4483     0.0107 O.3     
  22 C22           -1.1858     3.4152     0.4016 C.3     
  23 C23           -0.0362     4.0996    -0.3490 C.3     
  24 C24           -2.2347    -4.3310    -0.9103 C.3     
  25 O25           -2.3279    -3.1702    -1.7385 O.3     
  26 C26           -3.6315    -2.5860    -1.7759 C.3     
  27 C27           -3.6138    -1.3574    -2.6876 C.3     
  28 O28           -3.3434    -1.7646    -4.0304 O.3     
  29 C29           -3.3048    -0.6869    -4.9680 C.3     
  30 O30            1.8164    -3.1576     4.8614 O.3     
  31 C31            1.0878    -3.7546     5.9398 C.3     
  32 C32            0.8101    -5.2199     5.5776 C.3     
  33 O33            0.0432    -5.2454     4.3690 O.3     
  34 H34           -0.9269    -0.5549     0.0078 H       
  35 H35            3.3147     1.9551    -0.0192 H       
  36 H36            3.1618    -2.2641    -1.4989 H       
  37 H37            3.5747    -2.9283     0.1168 H       
  38 H38            2.4553    -1.7733     2.7469 H       
  39 H39           -0.6740    -5.4846     1.8806 H       
  40 H40           -0.5075    -5.0480    -1.9795 H       
  41 H41           -0.7520    -5.8034    -0.3864 H       
  42 H42           -2.1312     3.8881     0.1357 H       
  43 H43           -1.0232     3.4957     1.4764 H       
  44 H44            0.0108     5.1519    -0.0687 H       
  45 H45           -0.1951     4.0117    -1.4238 H       
  46 H46           -2.9194    -5.0954    -1.2777 H       
  47 H47           -2.4991    -4.0686     0.1141 H       
  48 H48           -4.3451    -3.3142    -2.1613 H       
  49 H49           -3.9248    -2.2874    -0.7694 H       
  50 H50           -4.5832    -0.8607    -2.6468 H       
  51 H51           -2.8381    -0.6683    -2.3537 H       
  52 H52           -4.2677    -0.1762    -4.9744 H       
  53 H53           -2.5226     0.0162    -4.6814 H       
  54 H54           -3.0945    -1.0785    -5.9632 H       
  55 H55            1.6795    -3.7075     6.8540 H       
  56 H56            0.1452    -3.2264     6.0836 H       
  57 H57            1.7527    -5.7460     5.4262 H       
  58 H58            0.2473    -5.6966     6.3802 H       
@<TRIPOS>BOND
   1    1    2 ar
   2    1    6 ar
   3    1   20 1
   4    2    3 ar
   5    2   34 1
   6    3    4 ar
   7    3    8 1
   8    4    5 ar
   9    4    7 1
  10    5    6 ar
  11    5   35 1
  12    6   21 1
  13    7    9 1
  14    8    9 1
  15    8   11 1
  16    8   12 1
  17    9   36 1
  18    9   37 1
  19   10   11 ar
  20   10   13 1
  21   10   18 ar
  22   11   15 ar
  23   12   13 am
  24   12   14 2
  25   13   19 1
  26   15   16 ar
  27   15   38 1
  28   16   17 ar
  29   16   30 1
  30   17   18 ar
  31   17   33 1
  32   18   39 1
  33   19   24 1
  34   19   40 1
  35   19   41 1
  36   20   22 1
  37   21   23 1
  38   22   23 1
  39   22   42 1
  40   22   43 1
  41   23   44 1
  42   23   45 1
  43   24   25 1
  44   24   46 1
  45   24   47 1
  46   25   26 1
  47   26   27 1
  48   26   48 1
  49   26   49 1
  50   27   28 1
  51   27   50 1
  52   27   51 1
  53   28   29 1
  54   29   52 1
  55   29   53 1
  56   29   54 1
  57   30   31 1
  58   31   32 1
  59   31   55 1
  60   31   56 1
  61   32   33 1
  62   32   57 1
  63   32   58 1

#	End of record

