#	Name: ASD01816504
#	Creating user name:	WinNT
#	Creation time:	15. 06. 2019 19:35

#	Modifying user name:	WinNT
#	Modification time:	15. 06. 2019 19:35

#	Program:	/corina/corina34_cracker 3.40 0067  02.08.2006

@<TRIPOS>MOLECULE
ASD01816504
  58   63    0    0    0
SMALL
NO_CHARGES


@<TRIPOS>ATOM
   1 C1            -0.0510     1.4804    -0.1012 C.ar    
   2 C2            -0.0520     0.0951    -0.1275 C.ar    
   3 C3             1.1344    -0.6087    -0.1384 C.ar    
   4 C4             2.3474     0.0706    -0.1230 C.ar    
   5 C5             2.3450     1.4752    -0.0963 C.ar    
   6 C6             1.1421     2.1735    -0.0855 C.ar    
   7 N7             3.5414    -0.6297    -0.1333 N.pl3   
   8 C8             4.7419    -0.0283    -0.1189 C.2     
   9 C9             4.8643     1.3387    -0.0927 C.2     
  10 C10            3.6432     2.1760    -0.0803 C.2     
  11 C11            5.9752     2.2853    -0.0723 C.2     
  12 N12            5.4202     3.5163    -0.0510 N.am    
  13 N13            4.0263     3.4203    -0.0563 N.2     
  14 C14            6.1394     4.7180    -0.0262 C.ar    
  15 O15            7.1659     2.0181    -0.0742 O.2     
  16 C16            3.4930    -2.0936    -0.1608 C.3     
  17 C17            3.4797    -2.5691    -1.5907 C.ar    
  18 C18            4.6713    -2.8263    -2.2435 C.ar    
  19 C19            4.6623    -3.2618    -3.5542 C.ar    
  20 C20            3.4552    -3.4416    -4.2162 C.ar    
  21 C21            2.2605    -3.1828    -3.5580 C.ar    
  22 C22            2.2757    -2.7526    -2.2456 C.ar    
  23 N23            3.4428    -3.8830    -5.5467 N.pl3   
  24 C24            2.3431    -4.0978    -6.3037 C.2     
  25 C25            2.7574    -4.5162    -7.5221 C.2     
  26 C26            4.1559    -4.5588    -7.5105 C.2     
  27 N27            4.5677    -4.1738    -6.3293 N.2     
  28 C28            7.0903     4.9799    -1.0015 C.ar    
  29 C29            7.7988     6.1664    -0.9750 C.ar    
  30 C30            7.5630     7.0952     0.0219 C.ar    
  31 C31            6.6176     6.8426     0.9983 C.ar    
  32 C32            5.8975     5.6577     0.9762 C.ar    
  33 N33            4.9394     5.3996     1.9642 N.am    
  34 C34            4.3408     6.4225     2.6059 C.2     
  35 O35            4.6836     7.5639     2.3800 O.2     
  36 C36            3.2456     6.1482     3.6040 C.3     
  37 H37           -0.9869     2.0194    -0.0974 H       
  38 H38           -0.9907    -0.4388    -0.1393 H       
  39 H39            1.1210    -1.6885    -0.1586 H       
  40 H40            1.1418     3.2533    -0.0654 H       
  41 H41            5.6345    -0.6362    -0.1279 H       
  42 H42            4.3694    -2.4957     0.3477 H       
  43 H43            2.5904    -2.4369     0.3447 H       
  44 H44            5.6099    -2.6863    -1.7280 H       
  45 H45            5.5933    -3.4619    -4.0637 H       
  46 H46            1.3200    -3.3214    -4.0705 H       
  47 H47            1.3467    -2.5512    -1.7331 H       
  48 H48            1.3183    -3.9608    -5.9917 H       
  49 H49            2.1209    -4.7721    -8.3562 H       
  50 H50            4.7870    -4.8541    -8.3356 H       
  51 H51            7.2773     4.2566    -1.7814 H       
  52 H52            8.5391     6.3685    -1.7349 H       
  53 H53            8.1194     8.0207     0.0379 H       
  54 H54            6.4366     7.5701     1.7758 H       
  55 H55            4.7065     4.4847     2.1867 H       
  56 H56            3.0774     5.0735     3.6726 H       
  57 H57            3.5393     6.5331     4.5806 H       
  58 H58            2.3279     6.6397     3.2808 H       
@<TRIPOS>BOND
   1    1    2 ar
   2    1    6 ar
   3    1   37 1
   4    2    3 ar
   5    2   38 1
   6    3    4 ar
   7    3   39 1
   8    4    5 ar
   9    4    7 1
  10    5    6 ar
  11    5   10 1
  12    6   40 1
  13    7    8 1
  14    7   16 1
  15    8    9 2
  16    8   41 1
  17    9   10 1
  18    9   11 1
  19   10   13 2
  20   11   12 am
  21   11   15 2
  22   12   13 1
  23   12   14 1
  24   14   28 ar
  25   14   32 ar
  26   16   17 1
  27   16   42 1
  28   16   43 1
  29   17   18 ar
  30   17   22 ar
  31   18   19 ar
  32   18   44 1
  33   19   20 ar
  34   19   45 1
  35   20   21 ar
  36   20   23 1
  37   21   22 ar
  38   21   46 1
  39   22   47 1
  40   23   24 1
  41   23   27 1
  42   24   25 2
  43   24   48 1
  44   25   26 1
  45   25   49 1
  46   26   27 2
  47   26   50 1
  48   28   29 ar
  49   28   51 1
  50   29   30 ar
  51   29   52 1
  52   30   31 ar
  53   30   53 1
  54   31   32 ar
  55   31   54 1
  56   32   33 1
  57   33   34 am
  58   33   55 1
  59   34   35 2
  60   34   36 1
  61   36   56 1
  62   36   57 1
  63   36   58 1

#	End of record

