#	Name: ASD05060008
#	Creating user name:	WinNT
#	Creation time:	15. 06. 2019 20:56

#	Modifying user name:	WinNT
#	Modification time:	15. 06. 2019 20:56

#	Program:	/corina/corina34_cracker 3.40 0067  02.08.2006

@<TRIPOS>MOLECULE
ASD05060008
 122  122    0    0    0
SMALL
NO_CHARGES


@<TRIPOS>ATOM
   1 N1            -2.3968     6.3432    -2.9457 N.3     
   2 N2            -2.7230     5.1961    -3.7774 N.3     
   3 C3            -4.1726     4.9586    -3.8012 C.3     
   4 C4            -4.5648     4.1285    -2.6062 C.2     
   5 N5            -5.6828     4.4756    -1.9023 N.am    
   6 C6            -5.9983     3.6098    -0.7435 C.3     
   7 C7            -6.8672     4.3844     0.2138 C.2     
   8 N8            -6.7729     4.1294     1.5475 N.am    
   9 C9            -7.6480     4.9208     2.4350 C.3     
  10 C10           -6.8134     5.5114     3.5419 C.2     
  11 N11           -7.0953     6.7757     3.9751 N.am    
  12 C12           -6.2328     7.2804     5.0675 C.3     
  13 C13           -5.6494     8.6052     4.6482 C.2     
  14 N14           -4.4203     8.9627     5.1111 N.am    
  15 C15           -3.9007    10.2709     4.6656 C.3     
  16 C16           -2.5188    10.0772     4.0964 C.2     
  17 N17           -2.0297    11.0090     3.2256 N.am    
  18 C18           -0.6676    10.7436     2.7096 C.3     
  19 C19           -0.7046    10.7991     1.2040 C.2     
  20 C20            0.0133     9.7719     0.4045 C.2     
  21 C21           -0.0265     9.8258    -1.1012 C.3     
  22 N22           -0.1256     8.4488    -1.6248 N.am    
  23 C23           -0.9291     8.2652    -2.7079 C.2     
  24 C24           -1.0730     6.8810    -3.2866 C.3     
  25 O25           -1.5212     9.2022    -3.2003 O.2     
  26 O26            0.6287     8.8944     0.9614 O.2     
  27 O27           -1.3179    11.6780     0.6470 O.2     
  28 O28           -1.8531     9.1120     4.4061 O.2     
  29 O29           -6.2663     9.3423     3.9085 O.2     
  30 O30           -5.9078     4.8759     4.0388 O.2     
  31 O31           -7.6400     5.2231    -0.1986 O.2     
  32 O32           -3.9002     3.1693    -2.2756 O.2     
  33 C33            0.0119     5.9708    -2.7075 C.3     
  34 C34            0.2982    11.8056     3.2391 C.3     
  35 C35            0.3983    11.6902     4.7615 C.3     
  36 C36            1.0533    10.3575     5.1300 C.3     
  37 C37            1.2453    12.8424     5.3057 C.3     
  38 C38           -8.3073     6.0456     1.6343 C.3     
  39 C39           -7.2280     6.8741     0.9346 C.3     
  40 C40           -6.7315     7.9686     1.8813 C.3     
  41 C41           -9.2467     5.4435     0.5875 C.3     
  42 C42           -6.7459     2.3635    -1.2220 C.3     
  43 C43           -5.8246     1.5265    -2.1117 C.3     
  44 C44           -6.5722     0.2802    -2.5903 C.3     
  45 C45           -5.6510    -0.5568    -3.4800 C.3     
  46 N46           -6.3687    -1.7534    -3.9394 N.3     
  47 C47           -4.8220    10.8489     3.5895 C.3     
  48 C48           -4.7929     9.9601     2.3728 C.2     
  49 O49           -4.2495     8.8771     2.4259 O.2     
  50 N50           -5.3705    10.3687     1.2258 N.am    
  51 C51           -4.5333     7.1202    -4.9615 C.2     
  52 C52           -4.9099     6.2984    -3.7557 C.3     
  53 O53           -3.7550     6.6795    -5.7739 O.2     
  54 O54           -5.0624     8.3418    -5.1330 O.3     
  55 C55           -7.5644     6.1241     6.8107 C.2     
  56 C56           -7.0671     7.4653     6.3366 C.3     
  57 O57           -7.2807     5.1230     6.1966 O.2     
  58 O58           -8.3226     6.0416     7.9153 O.3     
  59 C59           -2.5038     9.9333    -1.1169 C.2     
  60 C60           -1.2436    10.6351    -1.5533 C.3     
  61 O61           -2.4373     8.8645    -0.5573 O.2     
  62 O62           -3.7002    10.4955    -1.3498 O.3     
  63 H63           -3.1067     7.0565    -3.0190 H       
  64 H64           -2.3602     5.3120    -4.7117 H       
  65 H65           -4.4389     4.4280    -4.7154 H       
  66 H66           -6.2325     5.2370    -2.1451 H       
  67 H67           -5.0750     3.3163    -0.2439 H       
  68 H68           -6.1623     3.4616     1.8970 H       
  69 H69           -8.4157     4.2751     2.8612 H       
  70 H70           -7.8114     7.3068     3.5929 H       
  71 H71           -5.4281     6.5697     5.2562 H       
  72 H72           -3.9115     8.3871     5.7033 H       
  73 H73           -3.8539    10.9535     5.5141 H       
  74 H74           -2.5400    11.7910     2.9630 H       
  75 H75           -0.3406     9.7548     3.0314 H       
  76 H76            0.8846    10.2936    -1.4741 H       
  77 H77            0.3574     7.7126    -1.2178 H       
  78 H78           -0.9678     6.9276    -4.3705 H       
  79 H79           -0.0923     4.9697    -3.1258 H       
  80 H80            0.9942     6.3699    -2.9604 H       
  81 H81           -0.0933     5.9244    -1.6235 H       
  82 H82            1.2831    11.6534     2.7977 H       
  83 H83           -0.0700    12.7964     2.9733 H       
  84 H84           -0.6003    11.7367     5.1958 H       
  85 H85            2.0519    10.3110     4.6957 H       
  86 H86            1.1246    10.2753     6.2146 H       
  87 H87            0.4499     9.5367     4.7423 H       
  88 H88            0.7348    13.7875     5.1205 H       
  89 H89            1.3903    12.7118     6.3780 H       
  90 H90            2.2140    12.8487     4.8061 H       
  91 H91           -8.8768     6.6857     2.3082 H       
  92 H92           -6.3952     6.2271     0.6587 H       
  93 H93           -7.6454     7.3314     0.0376 H       
  94 H94           -6.0644     7.5314     2.6243 H       
  95 H95           -6.1935     8.7258     1.3109 H       
  96 H96           -7.5827     8.4285     2.3833 H       
  97 H97          -10.2315     5.2897     1.0286 H       
  98 H98           -9.3304     6.1241    -0.2599 H       
  99 H99           -8.8475     4.4878     0.2478 H       
 100 H100          -7.0547     1.7718    -0.3603 H       
 101 H101          -7.6258     2.6638    -1.7909 H       
 102 H102          -5.5157     2.1182    -2.9734 H       
 103 H103          -4.9446     1.2262    -1.5429 H       
 104 H104          -6.8811    -0.3115    -1.7285 H       
 105 H105          -7.4522     0.5805    -3.1591 H       
 106 H106          -5.3421     0.0349    -4.3417 H       
 107 H107          -4.7710    -0.8571    -2.9111 H       
 108 H108          -7.2230    -1.5025    -4.4142 H       
 109 H109          -5.7811    -2.3233    -4.5294 H       
 110 H110          -5.8402    10.9045     3.9745 H       
 111 H111          -4.4813    11.8480     3.3178 H       
 112 H112          -5.8051    11.2349     1.1833 H       
 113 H113          -5.3518     9.7966     0.4427 H       
 114 H114          -5.9854     6.1216    -3.7581 H       
 115 H115          -4.6320     6.8355    -2.8488 H       
 116 H116          -4.7907     8.8312    -5.9216 H       
 117 H117          -6.4517     7.9198     7.1130 H       
 118 H118          -7.9172     8.1127     6.1214 H       
 119 H119          -8.6179     5.1597     8.1802 H       
 120 H120          -1.2068    11.6279    -1.1050 H       
 121 H121          -1.2362    10.7264    -2.6395 H       
 122 H122          -4.4801    10.0077    -1.0516 H       
@<TRIPOS>BOND
   1    1    2 1
   2    1   24 1
   3    1   63 1
   4    2    3 1
   5    2   64 1
   6    3    4 1
   7    3   52 1
   8    3   65 1
   9    4    5 am
  10    4   32 2
  11    5    6 1
  12    5   66 1
  13    6    7 1
  14    6   42 1
  15    6   67 1
  16    7    8 am
  17    7   31 2
  18    8    9 1
  19    8   68 1
  20    9   10 1
  21    9   38 1
  22    9   69 1
  23   10   11 am
  24   10   30 2
  25   11   12 1
  26   11   70 1
  27   12   13 1
  28   12   56 1
  29   12   71 1
  30   13   14 am
  31   13   29 2
  32   14   15 1
  33   14   72 1
  34   15   16 1
  35   15   47 1
  36   15   73 1
  37   16   17 am
  38   16   28 2
  39   17   18 1
  40   17   74 1
  41   18   19 1
  42   18   34 1
  43   18   75 1
  44   19   20 1
  45   19   27 2
  46   20   21 1
  47   20   26 2
  48   21   22 1
  49   21   60 1
  50   21   76 1
  51   22   23 am
  52   22   77 1
  53   23   24 1
  54   23   25 2
  55   24   33 1
  56   24   78 1
  57   33   79 1
  58   33   80 1
  59   33   81 1
  60   34   35 1
  61   34   82 1
  62   34   83 1
  63   35   36 1
  64   35   37 1
  65   35   84 1
  66   36   85 1
  67   36   86 1
  68   36   87 1
  69   37   88 1
  70   37   89 1
  71   37   90 1
  72   38   39 1
  73   38   41 1
  74   38   91 1
  75   39   40 1
  76   39   92 1
  77   39   93 1
  78   40   94 1
  79   40   95 1
  80   40   96 1
  81   41   97 1
  82   41   98 1
  83   41   99 1
  84   42   43 1
  85   42  100 1
  86   42  101 1
  87   43   44 1
  88   43  102 1
  89   43  103 1
  90   44   45 1
  91   44  104 1
  92   44  105 1
  93   45   46 1
  94   45  106 1
  95   45  107 1
  96   46  108 1
  97   46  109 1
  98   47   48 1
  99   47  110 1
 100   47  111 1
 101   48   49 2
 102   48   50 am
 103   50  112 1
 104   50  113 1
 105   51   52 1
 106   51   53 2
 107   51   54 1
 108   52  114 1
 109   52  115 1
 110   54  116 1
 111   55   56 1
 112   55   57 2
 113   55   58 1
 114   56  117 1
 115   56  118 1
 116   58  119 1
 117   59   60 1
 118   59   61 2
 119   59   62 1
 120   60  120 1
 121   60  121 1
 122   62  122 1

#	End of record

