#	Name: ASD01916408
#	Creating user name:	WinNT
#	Creation time:	15. 06. 2019 20:07

#	Modifying user name:	WinNT
#	Modification time:	15. 06. 2019 20:07

#	Program:	/corina/corina34_cracker 3.40 0067  02.08.2006

@<TRIPOS>MOLECULE
ASD01916408
  39   41    0    0    0
SMALL
NO_CHARGES


@<TRIPOS>ATOM
   1 C1            -0.0167     1.3789     0.0096 C.ar    
   2 C2             0.0021    -0.0041     0.0020 C.ar    
   3 C3             1.2201    -0.6688    -0.0132 C.ar    
   4 C4             2.3827     0.0819    -0.0203 C.ar    
   5 C5             2.2904     1.4738    -0.0120 C.ar    
   6 N6             1.1040     2.0708     0.0026 N.ar    
   7 C7             3.4840     2.2650    -0.0192 C.1     
   8 C8             4.4625     2.9137    -0.0251 C.1     
   9 C9             5.6893     3.7271    -0.0325 C.3     
  10 C10            5.3174     5.2112    -0.0209 C.3     
  11 N11            6.5385     6.0206    -0.0283 N.pl3   
  12 N12            7.5912     5.9267     0.8900 N.2     
  13 C13            8.5039     6.8042     0.5663 C.2     
  14 C14            8.0612     7.4940    -0.5790 C.2     
  15 C15            6.8452     6.9809    -0.9241 C.2     
  16 C16            8.7886     8.5785    -1.2860 C.ar    
  17 C17           10.0329     9.0013    -0.8241 C.ar    
  18 C18           10.7055    10.0096    -1.4840 C.ar    
  19 C19           10.1447    10.6013    -2.6039 C.ar    
  20 C20            8.9074    10.1841    -3.0663 C.ar    
  21 C21            8.2311     9.1719    -2.4162 C.ar    
  22 F22           10.8063    11.5884    -3.2468 F       
  23 C23           -1.3377     2.1041     0.0198 C.3     
  24 F24           -1.7402     2.3213     1.3419 F       
  25 H25           -0.9229    -0.5616     0.0082 H       
  26 H26            1.2599    -1.7481    -0.0191 H       
  27 H27            3.3477    -0.4030    -0.0318 H       
  28 H28            6.2846     3.4948     0.8506 H       
  29 H29            6.2675     3.5044    -0.9292 H       
  30 H30            4.7222     5.4434    -0.9040 H       
  31 H31            4.7392     5.4339     0.8758 H       
  32 H32            9.4354     6.9715     1.0866 H       
  33 H33            6.2369     7.2898    -1.7614 H       
  34 H34           10.4704     8.5410     0.0494 H       
  35 H35           11.6703    10.3380    -1.1265 H       
  36 H36            8.4735    10.6483    -3.9396 H       
  37 H37            7.2688     8.8437    -2.7803 H       
  38 H38           -1.2303     3.0618    -0.4893 H       
  39 H39           -2.0869     1.5015    -0.4938 H       
@<TRIPOS>BOND
   1    1    2 ar
   2    1    6 ar
   3    1   23 1
   4    2    3 ar
   5    2   25 1
   6    3    4 ar
   7    3   26 1
   8    4    5 ar
   9    4   27 1
  10    5    6 ar
  11    5    7 1
  12    7    8 3
  13    8    9 1
  14    9   10 1
  15    9   28 1
  16    9   29 1
  17   10   11 1
  18   10   30 1
  19   10   31 1
  20   11   12 1
  21   11   15 1
  22   12   13 2
  23   13   14 1
  24   13   32 1
  25   14   15 2
  26   14   16 1
  27   15   33 1
  28   16   17 ar
  29   16   21 ar
  30   17   18 ar
  31   17   34 1
  32   18   19 ar
  33   18   35 1
  34   19   20 ar
  35   19   22 1
  36   20   21 ar
  37   20   36 1
  38   21   37 1
  39   23   24 1
  40   23   38 1
  41   23   39 1

#	End of record

