#	Name: ASD01915756
#	Creating user name:	WinNT
#	Creation time:	15. 06. 2019 20:06

#	Modifying user name:	WinNT
#	Modification time:	15. 06. 2019 20:06

#	Program:	/corina/corina34_cracker 3.40 0067  02.08.2006

@<TRIPOS>MOLECULE
ASD01915756
  44   47    0    0    0
SMALL
NO_CHARGES


@<TRIPOS>ATOM
   1 C1            -0.2339     0.7477    -0.1513 C.2     
   2 N2             0.0772    -0.5647     0.1299 N.pl3   
   3 C3            -0.9773    -1.5602     0.3540 C.3     
   4 C4            -2.2006    -0.8714     0.9562 C.3     
   5 N5            -2.5685     0.3471     0.2451 N.am    
   6 C6            -1.6316     1.1982    -0.2438 C.2     
   7 C7             0.9478     1.4149    -0.3041 C.2     
   8 C8             1.9404     0.4461    -0.1028 C.2     
   9 N9             1.3454    -0.6968     0.1483 N.2     
  10 C10            3.4285     0.6759    -0.1642 C.3     
  11 O11            3.9791    -0.0590    -1.2591 O.3     
  12 C12            5.1421     0.4028    -1.7894 C.ar    
  13 O13           -1.9301     2.2753    -0.7234 O.2     
  14 C14            5.6737    -0.1936    -2.9236 C.ar    
  15 C15            5.7968     1.4749    -1.2006 C.ar    
  16 C16            6.9789     1.9423    -1.7415 C.ar    
  17 C17            7.5096     1.3427    -2.8687 C.ar    
  18 C18            6.8560     0.2776    -3.4607 C.ar    
  19 C19           -3.9865     0.6586     0.0487 C.3     
  20 C20            4.0717     0.2043     1.1415 C.3     
  21 C21           -4.4938     1.4910     1.2279 C.3     
  22 C22           -5.9872     1.8211     1.2689 C.3     
  23 C23           -4.9710     2.9147     0.9342 C.3     
  24 H24           -1.2498    -2.0216    -0.5952 H       
  25 H25           -0.6155    -2.3254     1.0408 H       
  26 H26           -3.0428    -1.5628     0.9285 H       
  27 H27           -1.9875    -0.6214     1.9956 H       
  28 H28            1.0872     2.4616    -0.5309 H       
  29 H29            3.6266     1.7386    -0.3037 H       
  30 H30            5.1637    -1.0257    -3.3861 H       
  31 H31            5.3825     1.9439    -0.3204 H       
  32 H32            7.4888     2.7772    -1.2838 H       
  33 H33            8.4338     1.7096    -3.2901 H       
  34 H34            7.2727    -0.1893    -4.3408 H       
  35 H35           -4.1097     1.2241    -0.8750 H       
  36 H36           -4.5568    -0.2682    -0.0139 H       
  37 H37            5.1480     0.3705     1.0970 H       
  38 H38            3.6517     0.7648     1.9766 H       
  39 H39            3.8736    -0.8585     1.2809 H       
  40 H40           -3.9911     1.3145     2.1788 H       
  41 H41           -6.6083     1.4452     0.4559 H       
  42 H42           -6.4669     1.8621     2.2469 H       
  43 H43           -4.7821     3.6752     1.6918 H       
  44 H44           -4.9235     3.2583    -0.0992 H       
@<TRIPOS>BOND
   1    1    2 1
   2    1    7 2
   3    1    6 1
   4    2    3 1
   5    2    9 1
   6    3    4 1
   7    3   24 1
   8    3   25 1
   9    4    5 1
  10    4   26 1
  11    4   27 1
  12    5    6 am
  13    5   19 1
  14    6   13 2
  15    7    8 1
  16    7   28 1
  17    8    9 2
  18    8   10 1
  19   10   11 1
  20   10   20 1
  21   10   29 1
  22   11   12 1
  23   12   14 ar
  24   12   15 ar
  25   14   18 ar
  26   14   30 1
  27   15   16 ar
  28   15   31 1
  29   16   17 ar
  30   16   32 1
  31   17   18 ar
  32   17   33 1
  33   18   34 1
  34   19   21 1
  35   19   35 1
  36   19   36 1
  37   20   37 1
  38   20   38 1
  39   20   39 1
  40   21   22 1
  41   21   23 1
  42   21   40 1
  43   22   23 1
  44   22   41 1
  45   22   42 1
  46   23   43 1
  47   23   44 1

#	End of record

