#	Name: ASD02890002
#	Creating user name:	WinNT
#	Creation time:	15. 06. 2019 20:26

#	Modifying user name:	WinNT
#	Modification time:	15. 06. 2019 20:26

#	Program:	/corina/corina34_cracker 3.40 0067  02.08.2006

@<TRIPOS>MOLECULE
ASD02890002
  18   18    0    0    0
SMALL
NO_CHARGES


@<TRIPOS>ATOM
   1 C1            -0.1958     1.5442    -0.3750 C.ar    
   2 C2             0.0133     0.1613    -0.3903 C.ar    
   3 C3            -0.9952    -0.6921    -0.0014 C.ar    
   4 C4            -2.2209    -0.1897     0.4063 C.ar    
   5 C5            -2.4457     1.1752     0.4273 C.ar    
   6 C6            -1.4339     2.0537     0.0435 C.ar    
   7 N7            -1.6547     3.4266     0.0633 N.pl3   
   8 O8            -3.6517     1.6600     0.8278 O.3     
   9 C9             0.8801     2.4606    -0.7902 C.2     
  10 O10            0.6623     3.6529    -0.8789 O.2     
  11 O11            2.1061     1.9769    -1.0715 O.3     
  12 H12            0.9656    -0.2373    -0.7074 H       
  13 H13           -0.8300    -1.7593    -0.0145 H       
  14 H14           -3.0052    -0.8677     0.7089 H       
  15 H15           -2.5594     3.7731     0.0143 H       
  16 H16           -0.9040     4.0377     0.1262 H       
  17 H17           -3.7096     1.8352     1.7771 H       
  18 H18            2.7796     2.6168    -1.3397 H       
@<TRIPOS>BOND
   1    1    2 ar
   2    1    9 1
   3    1    6 ar
   4    2    3 ar
   5    2   12 1
   6    3    4 ar
   7    3   13 1
   8    4    5 ar
   9    4   14 1
  10    5    6 ar
  11    5    8 1
  12    6    7 1
  13    7   15 1
  14    7   16 1
  15    8   17 1
  16    9   10 2
  17    9   11 1
  18   11   18 1

#	End of record

