#	Name: ASD02500286
#	Creating user name:	WinNT
#	Creation time:	15. 06. 2019 20:22

#	Modifying user name:	WinNT
#	Modification time:	15. 06. 2019 20:22

#	Program:	/corina/corina34_cracker 3.40 0067  02.08.2006

@<TRIPOS>MOLECULE
ASD02500286
  62   66    0    0    0
SMALL
NO_CHARGES


@<TRIPOS>ATOM
   1 N1            -5.1275     4.9624     0.7207 N.ar    
   2 C2            -6.3343     5.4434     0.5457 C.ar    
   3 C3            -7.4054     5.0440     1.3423 C.ar    
   4 C4            -7.2113     4.1277     2.3362 C.ar    
   5 C5            -5.9141     3.6130     2.5210 C.ar    
   6 C6            -5.6380     2.6685     3.5223 C.ar    
   7 C7            -4.3697     2.1950     3.6694 C.ar    
   8 C8            -3.3414     2.6357     2.8393 C.ar    
   9 C9            -3.5736     3.5504     1.8585 C.ar    
  10 C10           -4.8696     4.0628     1.6754 C.ar    
  11 S11           -2.2545     4.0911     0.8230 S.o2    
  12 O12           -2.2889     5.5116     0.8380 O.2     
  13 O13           -1.1114     3.3373     1.2030 O.2     
  14 N14           -2.6252     3.6306    -0.7239 N.am    
  15 C15           -2.6521     2.2817    -1.0602 C.ar    
  16 C16           -2.2722     1.8764    -2.3370 C.ar    
  17 C17           -2.2977     0.5423    -2.6728 C.ar    
  18 C18           -2.7055    -0.4066    -1.7305 C.ar    
  19 C19           -3.0862     0.0035    -0.4496 C.ar    
  20 C20           -3.0531     1.3389    -0.1180 C.ar    
  21 C21           -1.8332     2.8999    -3.3522 C.3     
  22 F22           -1.5036     2.2569    -4.5501 F       
  23 F23           -2.8741     3.8064    -3.5806 F       
  24 F24           -0.7145     3.5866    -2.8684 F       
  25 C25           -2.7344    -1.8377    -2.0875 C.2     
  26 O26           -3.1701    -2.1861    -3.1679 O.2     
  27 N27           -2.2779    -2.7589    -1.2161 N.am    
  28 C28           -2.2110    -4.1776    -1.5941 C.3     
  29 C29           -0.7753    -4.6740    -1.3824 C.3     
  30 N30           -0.3350    -4.2778    -0.0374 N.am    
  31 C31           -0.4019    -2.8592     0.3406 C.3     
  32 C32           -1.8323    -2.3620     0.1270 C.3     
  33 C33            0.1215    -5.1991     0.8340 C.2     
  34 C34            0.6644    -4.7736     2.1452 C.ar    
  35 C35            0.4836    -5.5599     3.2870 C.ar    
  36 C36            1.0071    -5.1253     4.4894 C.ar    
  37 N37            1.6679    -3.9875     4.5680 N.ar    
  38 C38            1.8608    -3.2165     3.5165 C.ar    
  39 C39            1.3766    -3.5773     2.2739 C.ar    
  40 O40            0.0880    -6.3787     0.5442 O.2     
  41 H41           -6.5027     6.1688    -0.2365 H       
  42 H42           -8.3883     5.4589     1.1741 H       
  43 H43           -8.0301     3.8071     2.9633 H       
  44 H44           -6.4267     2.3198     4.1724 H       
  45 H45           -4.1582     1.4685     4.4400 H       
  46 H46           -2.3437     2.2456     2.9764 H       
  47 H47           -2.8237     4.3019    -1.3953 H       
  48 H48           -2.0033     0.2286    -3.6634 H       
  49 H49           -3.4017    -0.7272     0.2805 H       
  50 H50           -3.3426     1.6559     0.8730 H       
  51 H51           -2.8934    -4.7549    -0.9703 H       
  52 H52           -2.4860    -4.2901    -2.6428 H       
  53 H53           -0.7469    -5.7599    -1.4715 H       
  54 H54           -0.1195    -4.2258    -2.1288 H       
  55 H55           -0.1268    -2.7467     1.3893 H       
  56 H56            0.2805    -2.2818    -0.2831 H       
  57 H57           -1.8573    -1.2758     0.2146 H       
  58 H58           -2.4871    -2.8071     0.8761 H       
  59 H59           -0.0574    -6.4929     3.2300 H       
  60 H60            0.8727    -5.7257     5.3770 H       
  61 H61            2.4083    -2.2922     3.6269 H       
  62 H62            1.5424    -2.9430     1.4157 H       
@<TRIPOS>BOND
   1    1    2 ar
   2    1   10 ar
   3    2    3 ar
   4    2   41 1
   5    3    4 ar
   6    3   42 1
   7    4    5 ar
   8    4   43 1
   9    5    6 ar
  10    5   10 ar
  11    6    7 ar
  12    6   44 1
  13    7    8 ar
  14    7   45 1
  15    8    9 ar
  16    8   46 1
  17    9   10 ar
  18    9   11 1
  19   11   12 2
  20   11   13 2
  21   11   14 am
  22   14   15 1
  23   14   47 1
  24   15   16 ar
  25   15   20 ar
  26   16   17 ar
  27   16   21 1
  28   17   18 ar
  29   17   48 1
  30   18   19 ar
  31   18   25 1
  32   19   20 ar
  33   19   49 1
  34   20   50 1
  35   21   22 1
  36   21   23 1
  37   21   24 1
  38   25   26 2
  39   25   27 am
  40   27   28 1
  41   27   32 1
  42   28   29 1
  43   28   51 1
  44   28   52 1
  45   29   30 1
  46   29   53 1
  47   29   54 1
  48   30   31 1
  49   30   33 am
  50   31   32 1
  51   31   55 1
  52   31   56 1
  53   32   57 1
  54   32   58 1
  55   33   34 1
  56   33   40 2
  57   34   35 ar
  58   34   39 ar
  59   35   36 ar
  60   35   59 1
  61   36   37 ar
  62   36   60 1
  63   37   38 ar
  64   38   39 ar
  65   38   61 1
  66   39   62 1

#	End of record

