#	Name: ASD01816315
#	Creating user name:	WinNT
#	Creation time:	15. 06. 2019 19:35

#	Modifying user name:	WinNT
#	Modification time:	15. 06. 2019 19:35

#	Program:	/corina/corina34_cracker 3.40 0067  02.08.2006

@<TRIPOS>MOLECULE
ASD01816315
  56   62    0    0    0
SMALL
NO_CHARGES


@<TRIPOS>ATOM
   1 C1            -0.0167     1.3813     0.0096 C.ar    
   2 C2             0.0021    -0.0041     0.0020 C.ar    
   3 C3             1.1983    -0.6909    -0.0126 C.ar    
   4 C4             2.4015     0.0059    -0.0203 C.ar    
   5 C5             2.3790     1.4106    -0.0130 C.ar    
   6 C6             1.1662     2.0917     0.0022 C.ar    
   7 N7             3.6053    -0.6772    -0.0345 N.pl3   
   8 C8             4.7970    -0.0586    -0.0425 C.2     
   9 C9             4.8999     1.3103    -0.0370 C.2     
  10 C10            3.6669     2.1301    -0.0214 C.2     
  11 C11            5.9971     2.2730    -0.0424 C.2     
  12 N12            5.4245     3.4961    -0.0314 N.am    
  13 N13            4.0323     3.3800    -0.0189 N.2     
  14 O14            7.1912     2.0230    -0.0545 O.2     
  15 C15            3.5779    -2.1419    -0.0406 C.3     
  16 C16            3.5552    -2.6380    -1.4634 C.ar    
  17 C17            4.7430    -2.8875    -2.1262 C.ar    
  18 C18            4.7254    -3.3418    -3.4304 C.ar    
  19 C19            3.5137    -3.5483    -4.0758 C.ar    
  20 C20            2.3228    -3.2974    -3.4076 C.ar    
  21 C21            2.3467    -2.8482    -2.1017 C.ar    
  22 N22            3.4926    -4.0089    -5.3997 N.pl3   
  23 C23            2.3877    -4.2504    -6.1408 C.2     
  24 C24            2.7941    -4.6802    -7.3579 C.2     
  25 C25            4.1931    -4.7025    -7.3618 C.2     
  26 N26            4.6127    -4.2947    -6.1911 N.2     
  27 C27            6.1239     4.7037    -0.0320 C.ar    
  28 C28            7.0549     4.9688    -1.0143 C.ar    
  29 C29            7.7557     6.1706    -1.0208 C.ar    
  30 C30            7.5441     7.1151    -0.0630 C.ar    
  31 C31            6.6042     6.8857     0.9565 C.ar    
  32 C32            5.8812     5.6678     0.9690 C.ar    
  33 N33            6.3812     7.8004     1.9062 N.ar    
  34 C34            5.5056     7.5933     2.8600 C.ar    
  35 C35            4.7665     6.4153     2.9325 C.ar    
  36 C36            4.9423     5.4414     1.9897 C.ar    
  37 H37           -0.9602     1.9068     0.0169 H       
  38 H38           -0.9289    -0.5515     0.0079 H       
  39 H39            1.2003    -1.7709    -0.0177 H       
  40 H40            1.1506     3.1715     0.0074 H       
  41 H41            5.6982    -0.6536    -0.0531 H       
  42 H42            4.4657    -2.5240     0.4633 H       
  43 H43            2.6861    -2.4908     0.4801 H       
  44 H44            5.6852    -2.7266    -1.6236 H       
  45 H45            5.6534    -3.5358    -3.9477 H       
  46 H46            1.3787    -3.4568    -3.9073 H       
  47 H47            1.4207    -2.6528    -1.5814 H       
  48 H48            1.3646    -4.1236    -5.8190 H       
  49 H49            2.1520    -4.9571    -8.1809 H       
  50 H50            4.8191    -5.0005    -8.1899 H       
  51 H51            7.2420     4.2364    -1.7856 H       
  52 H52            8.4806     6.3577    -1.7992 H       
  53 H53            8.0993     8.0412    -0.0866 H       
  54 H54            5.3539     8.3561     3.6093 H       
  55 H55            4.0524     6.2732     3.7302 H       
  56 H56            4.3778     4.5215     2.0303 H       
@<TRIPOS>BOND
   1    1    2 ar
   2    1    6 ar
   3    1   37 1
   4    2    3 ar
   5    2   38 1
   6    3    4 ar
   7    3   39 1
   8    4    5 ar
   9    4    7 1
  10    5    6 ar
  11    5   10 1
  12    6   40 1
  13    7    8 1
  14    7   15 1
  15    8    9 2
  16    8   41 1
  17    9   10 1
  18    9   11 1
  19   10   13 2
  20   11   12 am
  21   11   14 2
  22   12   13 1
  23   12   27 1
  24   15   16 1
  25   15   42 1
  26   15   43 1
  27   16   17 ar
  28   16   21 ar
  29   17   18 ar
  30   17   44 1
  31   18   19 ar
  32   18   45 1
  33   19   20 ar
  34   19   22 1
  35   20   21 ar
  36   20   46 1
  37   21   47 1
  38   22   23 1
  39   22   26 1
  40   23   24 2
  41   23   48 1
  42   24   25 1
  43   24   49 1
  44   25   26 2
  45   25   50 1
  46   27   28 ar
  47   27   32 ar
  48   28   29 ar
  49   28   51 1
  50   29   30 ar
  51   29   52 1
  52   30   31 ar
  53   30   53 1
  54   31   32 ar
  55   31   33 ar
  56   32   36 ar
  57   33   34 ar
  58   34   35 ar
  59   34   54 1
  60   35   36 ar
  61   35   55 1
  62   36   56 1

#	End of record

