#	Name: ASD04590131
#	Creating user name:	WinNT
#	Creation time:	15. 06. 2019 20:50

#	Modifying user name:	WinNT
#	Modification time:	15. 06. 2019 20:50

#	Program:	/corina/corina34_cracker 3.40 0067  02.08.2006

@<TRIPOS>MOLECULE
ASD04590131
  52   54    0    0    0
SMALL
NO_CHARGES


@<TRIPOS>ATOM
   1 N1             0.3024     1.2309     0.5868 N.pl3   
   2 N2             0.3098    -0.0521     0.5268 N.2     
   3 C3             1.5148    -0.4879     0.2136 C.2     
   4 C4             2.3441     0.6537     0.0634 C.2     
   5 C5             1.5378     1.7208     0.3082 C.2     
   6 C6             1.9230    -1.8959     0.0504 C.2     
   7 N7             1.0223    -2.8832     0.2245 N.am    
   8 O8             3.0722    -2.1658    -0.2412 O.2     
   9 N9             3.7072     0.6764    -0.2670 N.am    
  10 C10            4.3557     1.8533    -0.3717 C.2     
  11 C11            6.7583     1.8357     0.2879 C.ar    
  12 C12            5.7906     1.8773    -0.7196 C.ar    
  13 C13            1.4277    -4.2816     0.0623 C.3     
  14 C14            0.4949    -5.1825     0.8764 C.3     
  15 C15            0.8852    -6.6456     0.6549 C.3     
  16 N16            0.7841    -6.9696    -0.7738 N.3     
  17 C17            1.7055    -6.1497    -1.5707 C.3     
  18 C18            1.3397    -4.6718    -1.4157 C.3     
  19 C19            8.0982     1.8580    -0.0455 C.ar    
  20 C20            8.4835     1.9218    -1.3725 C.ar    
  21 C21            7.5316     1.9627    -2.3754 C.ar    
  22 C22            6.1878     1.9411    -2.0580 C.ar    
  23 O23            3.7592     2.8953    -0.1796 O.2     
  24 Cl24           6.2772     1.7636     1.9543 Cl      
  25 Cl25           4.9950     1.9926    -3.3182 Cl      
  26 C26            1.0174    -8.4011    -1.0067 C.3     
  27 C27           -0.2211    -9.1948    -0.5860 C.3     
  28 O28           -1.3187    -8.8494    -1.4334 O.3     
  29 C29           -2.5315    -9.5387    -1.1237 C.3     
  30 H30           -0.4747     1.7721     0.7968 H       
  31 H31            1.8255     2.7615     0.2850 H       
  32 H32            0.1055    -2.6678     0.4571 H       
  33 H33            4.1831    -0.1548    -0.4203 H       
  34 H34            2.4522    -4.4068     0.4127 H       
  35 H35            0.5851    -4.9380     1.9348 H       
  36 H36           -0.5344    -5.0275     0.5530 H       
  37 H37            1.9100    -6.8030     0.9914 H       
  38 H38            0.2139    -7.2904     1.2220 H       
  39 H39            2.7264    -6.3094    -1.2238 H       
  40 H40            1.6300    -6.4344    -2.6202 H       
  41 H41            0.3237    -4.5088    -1.7752 H       
  42 H42            2.0334    -4.0625    -1.9949 H       
  43 H43            8.8473     1.8260     0.7319 H       
  44 H44            9.5330     1.9396    -1.6269 H       
  45 H45            7.8401     2.0124    -3.4092 H       
  46 H46            1.2146    -8.5695    -2.0654 H       
  47 H47            1.8757    -8.7295    -0.4206 H       
  48 H48           -0.0161   -10.2617    -0.6739 H       
  49 H49           -0.4713    -8.9568     0.4478 H       
  50 H50           -3.3156    -9.2213    -1.8111 H       
  51 H51           -2.3744   -10.6128    -1.2226 H       
  52 H52           -2.8297    -9.3078    -0.1010 H       
@<TRIPOS>BOND
   1    1    2 1
   2    1    5 1
   3    1   30 1
   4    2    3 2
   5    3    4 1
   6    3    6 1
   7    4    5 2
   8    4    9 1
   9    5   31 1
  10    6    7 am
  11    6    8 2
  12    7   13 1
  13    7   32 1
  14    9   10 am
  15    9   33 1
  16   10   23 2
  17   10   12 1
  18   11   12 ar
  19   11   19 ar
  20   11   24 1
  21   12   22 ar
  22   13   14 1
  23   13   18 1
  24   13   34 1
  25   14   15 1
  26   14   35 1
  27   14   36 1
  28   15   16 1
  29   15   37 1
  30   15   38 1
  31   16   17 1
  32   16   26 1
  33   17   18 1
  34   17   39 1
  35   17   40 1
  36   18   41 1
  37   18   42 1
  38   19   20 ar
  39   19   43 1
  40   20   21 ar
  41   20   44 1
  42   21   22 ar
  43   21   45 1
  44   22   25 1
  45   26   27 1
  46   26   46 1
  47   26   47 1
  48   27   28 1
  49   27   48 1
  50   27   49 1
  51   28   29 1
  52   29   50 1
  53   29   51 1
  54   29   52 1

#	End of record

