#	Name: ASD03331431
#	Creating user name:	WinNT
#	Creation time:	15. 06. 2019 20:39

#	Modifying user name:	WinNT
#	Modification time:	15. 06. 2019 20:39

#	Program:	/corina/corina34_cracker 3.40 0067  02.08.2006

@<TRIPOS>MOLECULE
ASD03331431
  89   93    0    0    0
SMALL
NO_CHARGES


@<TRIPOS>ATOM
   1 N1            -2.0336     3.7860     7.3920 N.3     
   2 C2            -0.7783     4.3476     7.9069 C.3     
   3 C3            -0.9445     4.6991     9.3870 C.3     
   4 C4            -1.3184     3.4360    10.1677 C.3     
   5 C5            -2.6027     2.8441     9.5805 C.3     
   6 C6            -2.3884     2.5463     8.0947 C.3     
   7 N7            -2.8071     3.9322     3.2695 N.am    
   8 C8            -3.1645     2.6770     3.9443 C.3     
   9 C9            -3.2624     2.9376     5.4507 C.3     
  10 C10           -1.9558     3.5652     5.9417 C.3     
  11 C11           -1.7330     4.9034     5.2335 C.3     
  12 C12           -1.6178     4.6651     3.7246 C.3     
  13 C13           -0.8076     2.6383     5.6359 C.2     
  14 O14            0.2071     3.0747     5.1350 O.2     
  15 N15           -0.9083     1.3245     5.9190 N.am    
  16 C16           -0.1865     2.4127    10.0571 C.3     
  17 C17           -1.5454     3.7923    11.6382 C.3     
  18 C18           -3.5528     4.3995     2.2487 C.2     
  19 O19           -3.3021     5.4844     1.7593 O.2     
  20 N20           -6.6587     3.0080     0.9468 N.pl3   
  21 C21           -5.9238     4.0598     1.3843 C.2     
  22 C22           -4.6713     3.5964     1.7257 C.2     
  23 C23           -4.6633     2.1990     1.4779 C.2     
  24 C24           -5.8911     1.8683     1.0026 C.2     
  25 C25           -6.3946     5.4882     1.4808 C.3     
  26 C26           -7.0104     5.7301     2.8604 C.3     
  27 C27           -7.4884     7.1802     2.9584 C.3     
  28 N28           -8.0780     7.4118     4.2793 N.am    
  29 S29           -8.3407     8.9587     4.8091 S.o2    
  30 O30           -8.8865     8.7953     6.1109 O.2     
  31 O31           -7.0941     9.6123     4.6141 O.2     
  32 C32           -9.5908     9.6200     3.6731 C.3     
  33 C33           -6.3292     0.5114     0.6104 C.ar    
  34 C34           -5.5472    -0.2546    -0.2572 C.ar    
  35 C35           -5.9616    -1.5207    -0.6189 C.ar    
  36 C36           -7.1496    -2.0309    -0.1233 C.ar    
  37 C37           -7.9287    -1.2757     0.7367 C.ar    
  38 C38           -7.5223    -0.0111     1.1101 C.ar    
  39 Cl39          -7.6645    -3.6239    -0.5825 Cl      
  40 Cl40          -4.0579     0.3844    -0.8796 Cl      
  41 C41           -7.9897     3.0709     0.5126 C.ar    
  42 C42           -8.2946     2.8683    -0.8267 C.ar    
  43 C43           -9.6071     2.9304    -1.2520 C.ar    
  44 C44          -10.6179     3.1944    -0.3445 C.ar    
  45 C45          -10.3166     3.3971     0.9909 C.ar    
  46 C46           -9.0062     3.3304     1.4221 C.ar    
  47 Cl47         -12.2668     3.2718    -0.8822 Cl      
  48 H48            0.0204     3.6143     7.7952 H       
  49 H49           -0.5260     5.2475     7.3460 H       
  50 H50           -0.0078     5.1014     9.7729 H       
  51 H51           -1.7337     5.4426     9.4981 H       
  52 H52           -2.8507     1.9210    10.1045 H       
  53 H53           -3.4180     3.5584     9.6946 H       
  54 H54           -3.3056     2.1380     7.6702 H       
  55 H55           -1.5822     1.8215     7.9821 H       
  56 H56           -4.1256     2.3225     3.5716 H       
  57 H57           -2.3968     1.9274     3.7523 H       
  58 H58           -4.0902     3.6184     5.6491 H       
  59 H59           -3.4323     1.9958     5.9726 H       
  60 H60           -2.5752     5.5658     5.4340 H       
  61 H61           -0.8144     5.3609     5.6008 H       
  62 H62           -0.7240     4.0777     3.5147 H       
  63 H63           -1.5583     5.6225     3.2070 H       
  64 H64           -1.7482     0.9604     6.2397 H       
  65 H65           -0.1408     0.7430     5.8021 H       
  66 H66            0.7286     2.8370    10.4702 H       
  67 H67           -0.4535     1.5140    10.6130 H       
  68 H68           -0.0280     2.1580     9.0091 H       
  69 H69           -2.3540     4.5192    11.7153 H       
  70 H70           -1.8116     2.8927    12.1931 H       
  71 H71           -0.6325     4.2188    12.0539 H       
  72 H72           -3.8351     1.5245     1.6380 H       
  73 H73           -5.5484     6.1601     1.3377 H       
  74 H74           -7.1427     5.6769     0.7109 H       
  75 H75           -7.8566     5.0581     3.0035 H       
  76 H76           -6.2623     5.5413     3.6303 H       
  77 H77           -6.6422     7.8522     2.8153 H       
  78 H78           -8.2365     7.3689     2.1884 H       
  79 H79           -8.3145     6.6592     4.8436 H       
  80 H80          -10.4931     9.0112     3.7314 H       
  81 H81           -9.8271    10.6472     3.9509 H       
  82 H82           -9.2035     9.5990     2.6545 H       
  83 H83           -5.3584    -2.1141    -1.2900 H       
  84 H84           -8.8544    -1.6791     1.1196 H       
  85 H85           -8.1289     0.5748     1.7848 H       
  86 H86           -7.5060     2.6626    -1.5354 H       
  87 H87           -9.8447     2.7732    -2.2937 H       
  88 H88          -11.1072     3.6033     1.6971 H       
  89 H89           -8.7720     3.4839     2.4651 H       
@<TRIPOS>BOND
   1    1    2 1
   2    1    6 1
   3    1   10 1
   4    2    3 1
   5    2   48 1
   6    2   49 1
   7    3    4 1
   8    3   50 1
   9    3   51 1
  10    4    5 1
  11    4   16 1
  12    4   17 1
  13    5    6 1
  14    5   52 1
  15    5   53 1
  16    6   54 1
  17    6   55 1
  18    7    8 1
  19    7   12 1
  20    7   18 am
  21    8    9 1
  22    8   56 1
  23    8   57 1
  24    9   10 1
  25    9   58 1
  26    9   59 1
  27   10   11 1
  28   10   13 1
  29   11   12 1
  30   11   60 1
  31   11   61 1
  32   12   62 1
  33   12   63 1
  34   13   14 2
  35   13   15 am
  36   15   64 1
  37   15   65 1
  38   16   66 1
  39   16   67 1
  40   16   68 1
  41   17   69 1
  42   17   70 1
  43   17   71 1
  44   18   19 2
  45   18   22 1
  46   20   21 1
  47   20   24 1
  48   20   41 1
  49   21   22 2
  50   21   25 1
  51   22   23 1
  52   23   24 2
  53   23   72 1
  54   24   33 1
  55   25   26 1
  56   25   73 1
  57   25   74 1
  58   26   27 1
  59   26   75 1
  60   26   76 1
  61   27   28 1
  62   27   77 1
  63   27   78 1
  64   28   29 am
  65   28   79 1
  66   29   30 2
  67   29   31 2
  68   29   32 1
  69   32   80 1
  70   32   81 1
  71   32   82 1
  72   33   34 ar
  73   33   38 ar
  74   34   35 ar
  75   34   40 1
  76   35   36 ar
  77   35   83 1
  78   36   37 ar
  79   36   39 1
  80   37   38 ar
  81   37   84 1
  82   38   85 1
  83   41   42 ar
  84   41   46 ar
  85   42   43 ar
  86   42   86 1
  87   43   44 ar
  88   43   87 1
  89   44   45 ar
  90   44   47 1
  91   45   46 ar
  92   45   88 1
  93   46   89 1

#	End of record

