#	Name: ASD09740165
#	Creating user name:	WinNT
#	Creation time:	15. 06. 2019 21:22

#	Modifying user name:	WinNT
#	Modification time:	15. 06. 2019 21:22

#	Program:	/corina/corina34_cracker 3.40 0067  02.08.2006

@<TRIPOS>MOLECULE
ASD09740165
  38   40    0    0    0
SMALL
NO_CHARGES


@<TRIPOS>ATOM
   1 C1            -0.0184     1.5028     0.0103 C.3     
   2 O2             0.0942    -6.2065     0.6775 O.3     
   3 N3             0.0839    -5.0434     1.0207 N.2     
   4 C4             0.0766    -6.2881    -0.6622 C.2     
   5 N5             0.0542    -5.0499    -1.1209 N.2     
   6 C6             0.0591    -4.2600    -0.0270 C.2     
   7 C7             0.0396    -2.7757    -0.0144 C.ar    
   8 C8             0.0822    -7.5245    -1.4683 C.ar    
   9 C9             0.0133    -2.0673    -1.2137 C.ar    
  10 C10            0.0413    -2.0876     1.1963 C.ar    
  11 C11            0.0230    -0.7026     1.2015 C.ar    
  12 C12            0.0021    -0.0041     0.0020 C.ar    
  13 C13           -0.0054    -0.6867    -1.1996 C.ar    
  14 C14            0.1016    -8.7876    -0.8547 C.ar    
  15 C15            0.0624    -7.4730    -2.8712 C.ar    
  16 C16            0.0686    -8.6613    -3.5862 C.ar    
  17 N17            0.0926    -9.8245    -2.9675 N.ar    
  18 C18            0.1061    -9.9210    -1.6531 C.ar    
  19 O19            0.0245    -0.0276     2.3810 O.3     
  20 C20            0.0456    -0.8102     3.5765 C.3     
  21 O21            0.1160    -8.8970     0.4984 O.3     
  22 O22            0.0372    -6.2794    -3.5173 O.3     
  23 C23            0.1335   -11.2830    -1.0087 C.3     
  24 H24            1.0042     1.8801     0.0026 H       
  25 H25           -0.5455     1.8639    -0.8728 H       
  26 H26           -0.5286     1.8543     0.9071 H       
  27 H27            0.0077    -2.5979    -2.1544 H       
  28 H28            0.0568    -2.6324     2.1286 H       
  29 H29           -0.0213    -0.1388    -2.1302 H       
  30 H30            0.0532    -8.6329    -4.6657 H       
  31 H31            0.0446    -0.1495     4.4434 H       
  32 H32           -0.8357    -1.4509     3.6069 H       
  33 H33            0.9440    -1.4273     3.5910 H       
  34 H34           -0.7631    -8.9380     0.8991 H       
  35 H35            0.9131    -5.9214    -3.7165 H       
  36 H36            1.1676   -11.5952    -0.8628 H       
  37 H37           -0.3723   -11.2390    -0.0442 H       
  38 H38           -0.3749   -12.0001    -1.6532 H       
@<TRIPOS>BOND
   1    1   12 1
   2    1   24 1
   3    1   25 1
   4    1   26 1
   5    2    3 1
   6    2    4 1
   7    3    6 2
   8    4    5 2
   9    4    8 1
  10    5    6 1
  11    6    7 1
  12    7    9 ar
  13    7   10 ar
  14    8   15 ar
  15    8   14 ar
  16    9   13 ar
  17    9   27 1
  18   10   11 ar
  19   10   28 1
  20   11   12 ar
  21   11   19 1
  22   12   13 ar
  23   13   29 1
  24   14   21 1
  25   14   18 ar
  26   15   16 ar
  27   15   22 1
  28   16   17 ar
  29   16   30 1
  30   17   18 ar
  31   18   23 1
  32   19   20 1
  33   20   31 1
  34   20   32 1
  35   20   33 1
  36   21   34 1
  37   22   35 1
  38   23   36 1
  39   23   37 1
  40   23   38 1

#	End of record

