#	Name: ASD01231352
#	Creating user name:	WinNT
#	Creation time:	15. 06. 2019 19:15

#	Modifying user name:	WinNT
#	Modification time:	15. 06. 2019 19:15

#	Program:	/corina/corina34_cracker 3.40 0067  02.08.2006

@<TRIPOS>MOLECULE
ASD01231352
  47   49    0    0    0
SMALL
NO_CHARGES


@<TRIPOS>ATOM
   1 C1            -0.2308    -0.5160     0.9488 C.3     
   2 C2            -0.9973    -1.6921     0.3404 C.3     
   3 C3            -1.1316    -2.8061     1.3806 C.3     
   4 S4            -2.6478    -1.1391    -0.1699 S.o2    
   5 O5            -3.2976    -2.1467    -0.9326 O.2     
   6 O6            -3.3123    -0.4926     0.9071 O.2     
   7 N7            -2.3587     0.0746    -1.2588 N.am    
   8 C8            -1.6986    -0.2253    -2.5318 C.3     
   9 C9            -2.7491    -0.4468    -3.6407 C.3     
  10 C10           -2.8889     0.9640    -4.2510 C.3     
  11 C11           -1.5650     1.6458    -3.9800 C.ar    
  12 C12           -1.0031     2.7749    -4.5524 C.ar    
  13 C13            0.2374     3.2195    -4.1394 C.ar    
  14 C14            0.9215     2.5360    -3.1514 C.ar    
  15 C15            0.3630     1.4099    -2.5794 C.ar    
  16 C16           -0.8810     0.9625    -2.9922 C.ar    
  17 C17            0.8451     4.4482    -4.7655 C.3     
  18 O18            0.4496     5.6050    -4.0256 O.3     
  19 C19            0.9152     6.8053    -4.4615 C.ar    
  20 C20            0.5705     7.9704    -3.7899 C.ar    
  21 C21            1.0454     9.1893    -4.2354 C.ar    
  22 C22            1.8632     9.2486    -5.3489 C.ar    
  23 C23            2.2073     8.0897    -6.0194 C.ar    
  24 C24            1.7402     6.8677    -5.5745 C.ar    
  25 Br25          -0.5483     7.8897    -2.2675 Br      
  26 H26            0.7610    -0.8483     1.2555 H       
  27 H27           -0.1351     0.2776     0.2078 H       
  28 H28           -0.7723    -0.1394     1.8167 H       
  29 H29           -0.4558    -2.0687    -0.5274 H       
  30 H30           -1.6731    -2.4295     2.2484 H       
  31 H31           -1.6777    -3.6440     0.9472 H       
  32 H32           -0.1398    -3.1384     1.6872 H       
  33 H33           -2.6263     0.9841    -1.0537 H       
  34 H34           -1.0646    -1.1061    -2.4301 H       
  35 H35           -2.3845    -1.1560    -4.3837 H       
  36 H36           -3.6959    -0.7809    -3.2163 H       
  37 H37           -3.0666     0.8959    -5.3242 H       
  38 H38           -3.7002     1.5071    -3.7662 H       
  39 H39           -1.5368     3.3091    -5.3245 H       
  40 H40            1.8919     2.8821    -2.8275 H       
  41 H41            0.8980     0.8765    -1.8076 H       
  42 H42            1.9317     4.3629    -4.7530 H       
  43 H43            0.4997     4.5400    -5.7953 H       
  44 H44            0.7774    10.0962    -3.7138 H       
  45 H45            2.2334    10.2021    -5.6957 H       
  46 H46            2.8459     8.1390    -6.8890 H       
  47 H47            2.0137     5.9622    -6.0957 H       
@<TRIPOS>BOND
   1    1    2 1
   2    1   26 1
   3    1   27 1
   4    1   28 1
   5    2    3 1
   6    2    4 1
   7    2   29 1
   8    3   30 1
   9    3   31 1
  10    3   32 1
  11    4    5 2
  12    4    6 2
  13    4    7 am
  14    7    8 1
  15    7   33 1
  16    8    9 1
  17    8   16 1
  18    8   34 1
  19    9   10 1
  20    9   35 1
  21    9   36 1
  22   10   11 1
  23   10   37 1
  24   10   38 1
  25   11   12 ar
  26   11   16 ar
  27   12   13 ar
  28   12   39 1
  29   13   14 ar
  30   13   17 1
  31   14   15 ar
  32   14   40 1
  33   15   16 ar
  34   15   41 1
  35   17   18 1
  36   17   42 1
  37   17   43 1
  38   18   19 1
  39   19   20 ar
  40   19   24 ar
  41   20   21 ar
  42   20   25 1
  43   21   22 ar
  44   21   44 1
  45   22   23 ar
  46   22   45 1
  47   23   24 ar
  48   23   46 1
  49   24   47 1

#	End of record

