#	Name: ASD01122004
#	Creating user name:	WinNT
#	Creation time:	15. 06. 2019 18:59

#	Modifying user name:	WinNT
#	Modification time:	15. 06. 2019 18:59

#	Program:	/corina/corina34_cracker 3.40 0067  02.08.2006

@<TRIPOS>MOLECULE
ASD01122004
  31   32    0    0    0
SMALL
NO_CHARGES


@<TRIPOS>ATOM
   1 C1            -0.0218     1.7565     0.0117 C.2     
   2 S2             0.0021    -0.0041     0.0020 S.3     
   3 C3            -1.7595    -0.0318     0.0194 C.2     
   4 C4            -2.2021     1.2390     0.0306 C.2     
   5 N5            -1.2502     2.1725     0.0313 N.2     
   6 N6             1.0985     2.5715     0.0054 N.pl3   
   7 C7            -3.6418     1.5760     0.0467 C.2     
   8 C8            -4.1877     2.6276     0.6889 C.2     
   9 C9            -5.5582     2.7354     0.5575 C.2     
  10 C10           -6.1318     1.7843    -0.1834 C.2     
  11 S11           -4.9060     0.6709    -0.7755 S.3     
  12 C12           -2.6227    -1.2671     0.0209 C.3     
  13 C13           -2.9287    -1.6772    -1.4210 C.3     
  14 C14           -3.8051    -2.9314    -1.4195 C.3     
  15 P15           -7.9077     1.6629    -0.5327 P.3     
  16 O16           -8.3322     2.8276    -1.3412 O.2     
  17 O17           -8.2026     0.3069    -1.3490 O.3     
  18 O18           -8.7271     1.6441     0.8530 O.3     
  19 H19            1.9848     2.1775    -0.0052 H       
  20 H20            0.9965     3.5361     0.0115 H       
  21 H21           -3.6001     3.3302     1.2612 H       
  22 H22           -6.1243     3.5302     1.0203 H       
  23 H23           -2.0965    -2.0775     0.5252 H       
  24 H24           -3.5554    -1.0580     0.5448 H       
  25 H25           -3.4549    -0.8668    -1.9254 H       
  26 H26           -1.9960    -1.8864    -1.9450 H       
  27 H27           -3.2788    -3.7418    -0.9151 H       
  28 H28           -4.7377    -2.7222    -0.8956 H       
  29 H29           -4.0230    -3.2235    -2.4468 H       
  30 H30           -7.9486    -0.4987    -0.8783 H       
  31 H31           -9.6857     1.5804     0.7422 H       
@<TRIPOS>BOND
   1    1    2 1
   2    1    6 1
   3    1    5 2
   4    2    3 1
   5    3    4 2
   6    3   12 1
   7    4    5 1
   8    4    7 1
   9    6   19 1
  10    6   20 1
  11    7    8 2
  12    7   11 1
  13    8    9 1
  14    8   21 1
  15    9   10 2
  16    9   22 1
  17   10   11 1
  18   10   15 1
  19   12   13 1
  20   12   23 1
  21   12   24 1
  22   13   14 1
  23   13   25 1
  24   13   26 1
  25   14   27 1
  26   14   28 1
  27   14   29 1
  28   15   16 2
  29   15   17 1
  30   15   18 1
  31   17   30 1
  32   18   31 1

#	End of record

