#	Name: ASD07931998
#	Creating user name:	WinNT
#	Creation time:	15. 06. 2019 21:14

#	Modifying user name:	WinNT
#	Modification time:	15. 06. 2019 21:14

#	Program:	/corina/corina34_cracker 3.40 0067  02.08.2006

@<TRIPOS>MOLECULE
ASD07931998
  66   69    0    0    0
SMALL
NO_CHARGES


@<TRIPOS>ATOM
   1 N1             0.6149     1.4403    -0.6423 N.2     
   2 C2             1.0697     0.0645    -0.6761 C.3     
   3 C3             1.7789    -0.3343     0.6217 C.3     
   4 S4             2.9998     0.9645     1.0054 S.o2    
   5 N5             2.0468     2.3315     1.0053 N.am    
   6 C6             1.0487     2.4140     0.0629 C.2     
   7 C7             2.2642     3.4074     1.9756 C.3     
   8 C8            -0.1177    -0.8398    -0.8841 C.ar    
   9 C9             2.0383    -0.1113    -1.8474 C.3     
  10 C10           -1.3919    -0.3060    -0.9358 C.ar    
  11 O11            3.4634     0.8464     2.3434 O.2     
  12 O12            3.9003     1.1510    -0.0779 O.2     
  13 C13            0.0686    -2.2038    -1.0291 C.ar    
  14 C14           -1.0218    -3.0354    -1.2202 C.ar    
  15 C15           -2.2978    -2.5027    -1.2664 C.ar    
  16 C16           -2.4828    -1.1353    -1.1267 C.ar    
  17 F17            1.3147    -2.7236    -0.9844 F       
  18 F18           -3.3624    -3.3132    -1.4528 F       
  19 F19           -3.7284    -0.6139    -1.1711 F       
  20 N20            0.4703     3.6450    -0.1376 N.pl3   
  21 C21           -2.7487     3.2901     2.9730 C.ar    
  22 C22           -2.8512     4.6003     3.4175 C.ar    
  23 C23           -2.3448     5.6344     2.6437 C.ar    
  24 C24           -1.7395     5.3574     1.4332 C.ar    
  25 C25           -1.6386     4.0507     0.9925 C.ar    
  26 C26           -2.1429     3.0183     1.7616 C.ar    
  27 C27           -0.9782     3.7514    -0.3287 C.3     
  28 O28           -3.4471     4.8703     4.6087 O.3     
  29 C29           -3.5172     6.2420     5.0028 C.3     
  30 C30            3.0366     4.9200    -3.5122 C.ar    
  31 C31            2.2649     5.8424    -4.2038 C.ar    
  32 C32            1.1804     6.4423    -3.5805 C.ar    
  33 C33            0.8712     6.1197    -2.2733 C.ar    
  34 C34            1.6419     5.2002    -1.5861 C.ar    
  35 C35            2.7235     4.6012    -2.2050 C.ar    
  36 C36            1.3026     4.8505    -0.1600 C.3     
  37 O37            2.5711     6.1581    -5.4897 O.3     
  38 C38            1.7330     7.1157    -6.1398 C.3     
  39 H39            1.0531    -0.4102     1.4313 H       
  40 H40            2.2856    -1.2900     0.4875 H       
  41 H41            3.0424     4.0763     1.6080 H       
  42 H42            1.3386     3.9668     2.1113 H       
  43 H43            2.5734     2.9796     2.9293 H       
  44 H44            2.8913     0.5546    -1.7166 H       
  45 H45            2.3854    -1.1441    -1.8800 H       
  46 H46            1.5284     0.1303    -2.7800 H       
  47 H47           -1.5358     0.7588    -0.8266 H       
  48 H48           -0.8763    -4.0995    -1.3336 H       
  49 H49           -3.1382     2.4829     3.5756 H       
  50 H50           -2.4237     6.6552     2.9874 H       
  51 H51           -1.3451     6.1621     0.8305 H       
  52 H52           -2.0628     1.9985     1.4151 H       
  53 H53           -1.1938     4.5550    -1.0329 H       
  54 H54           -1.3629     2.8105    -0.7222 H       
  55 H55           -4.0807     6.8054     4.2591 H       
  56 H56           -4.0151     6.3173     5.9696 H       
  57 H57           -2.5093     6.6497     5.0805 H       
  58 H58            3.8787     4.4484    -3.9967 H       
  59 H59            0.5783     7.1609    -4.1167 H       
  60 H60            0.0270     6.5865    -1.7876 H       
  61 H61            3.3239     3.8832    -1.6661 H       
  62 H62            0.7579     5.6767     0.2969 H       
  63 H63            2.2212     4.6682     0.3977 H       
  64 H64            2.0869     7.2762    -7.1582 H       
  65 H65            0.7087     6.7440    -6.1655 H       
  66 H66            1.7642     8.0573    -5.5917 H       
@<TRIPOS>BOND
   1    1    2 1
   2    1    6 2
   3    2    3 1
   4    2    8 1
   5    2    9 1
   6    3    4 1
   7    3   39 1
   8    3   40 1
   9    4    5 am
  10    4   11 2
  11    4   12 2
  12    5    6 1
  13    5    7 1
  14    6   20 1
  15    7   41 1
  16    7   42 1
  17    7   43 1
  18    8   13 ar
  19    8   10 ar
  20    9   44 1
  21    9   45 1
  22    9   46 1
  23   10   16 ar
  24   10   47 1
  25   13   14 ar
  26   13   17 1
  27   14   15 ar
  28   14   48 1
  29   15   16 ar
  30   15   18 1
  31   16   19 1
  32   20   27 1
  33   20   36 1
  34   21   22 ar
  35   21   26 ar
  36   21   49 1
  37   22   23 ar
  38   22   28 1
  39   23   24 ar
  40   23   50 1
  41   24   25 ar
  42   24   51 1
  43   25   26 ar
  44   25   27 1
  45   26   52 1
  46   27   53 1
  47   27   54 1
  48   28   29 1
  49   29   55 1
  50   29   56 1
  51   29   57 1
  52   30   31 ar
  53   30   35 ar
  54   30   58 1
  55   31   32 ar
  56   31   37 1
  57   32   33 ar
  58   32   59 1
  59   33   34 ar
  60   33   60 1
  61   34   35 ar
  62   34   36 1
  63   35   61 1
  64   36   62 1
  65   36   63 1
  66   37   38 1
  67   38   64 1
  68   38   65 1
  69   38   66 1

#	End of record

