#	Name: ASD01913908
#	Creating user name:	WinNT
#	Creation time:	15. 06. 2019 20:02

#	Modifying user name:	WinNT
#	Modification time:	15. 06. 2019 20:02

#	Program:	/corina/corina34_cracker 3.40 0067  02.08.2006

@<TRIPOS>MOLECULE
ASD01913908
  42   44    0    0    0
SMALL
NO_CHARGES


@<TRIPOS>ATOM
   1 C1            -0.0173     1.4278     0.0099 C.ar    
   2 C2             0.0021    -0.0041     0.0020 C.1     
   3 C3             0.0180    -1.1779    -0.0044 C.1     
   4 C4             0.0374    -2.6098    -0.0123 C.ar    
   5 C5            -1.1552    -3.3455    -0.0049 C.ar    
   6 C6             0.0738    -5.2913    -0.0270 C.ar    
   7 N7             1.2234    -4.6330    -0.0401 N.ar    
   8 C8             1.2495    -3.3128    -0.0335 C.ar    
   9 N9            -1.0933    -4.6646    -0.0125 N.ar    
  10 C10            1.1547     3.5252     0.0104 C.ar    
  11 C11           -1.2349     2.1133     0.0310 C.ar    
  12 C12           -0.0549     4.1972     0.0256 C.ar    
  13 C13           -1.2457     3.4924     0.0390 C.ar    
  14 N14            0.0926    -6.6796    -0.0350 N.am    
  15 C15            1.1812     2.1463     0.0023 C.ar    
  16 C16            1.2789    -7.2884    -0.0558 C.2     
  17 C17            1.4444    -8.7798    -0.1151 C.3     
  18 C18            0.1366    -9.4654     0.2884 C.3     
  19 C19           -1.0110    -8.8219    -0.4991 C.3     
  20 C20           -1.1853    -7.3802    -0.0144 C.3     
  21 C21            0.2143   -10.9575    -0.0410 C.3     
  22 C22           -0.1005    -9.2801     1.7885 C.3     
  23 O23            2.2774    -6.6009    -0.0255 O.2     
  24 H24           -2.1103    -2.8415     0.0073 H       
  25 H25            2.1905    -2.7829    -0.0446 H       
  26 H26            2.0801     4.0818     0.0001 H       
  27 H27           -2.1650     1.5646     0.0408 H       
  28 H28           -0.0696     5.2771     0.0323 H       
  29 H29           -2.1859     4.0236     0.0553 H       
  30 H30            2.1259     1.6231    -0.0095 H       
  31 H31            1.7094    -9.0746    -1.1305 H       
  32 H32            2.2380    -9.0835     0.5675 H       
  33 H33           -0.7731    -8.8278    -1.5628 H       
  34 H34           -1.9316    -9.3790    -0.3249 H       
  35 H35           -1.5832    -7.3869     1.0004 H       
  36 H36           -1.8859    -6.8621    -0.6693 H       
  37 H37            1.0424   -11.4078     0.5064 H       
  38 H38           -0.7183   -11.4423     0.2476 H       
  39 H39            0.3741   -11.0854    -1.1116 H       
  40 H40           -0.1644    -8.2163     2.0175 H       
  41 H41           -1.0323    -9.7694     2.0722 H       
  42 H42            0.7261    -9.7224     2.3445 H       
@<TRIPOS>BOND
   1    1    2 1
   2    1   15 ar
   3    1   11 ar
   4    2    3 3
   5    3    4 1
   6    4    5 ar
   7    4    8 ar
   8    5    9 ar
   9    5   24 1
  10    6    7 ar
  11    6   14 1
  12    6    9 ar
  13    7    8 ar
  14    8   25 1
  15   10   12 ar
  16   10   15 ar
  17   10   26 1
  18   11   13 ar
  19   11   27 1
  20   12   13 ar
  21   12   28 1
  22   13   29 1
  23   14   16 am
  24   14   20 1
  25   15   30 1
  26   16   17 1
  27   16   23 2
  28   17   18 1
  29   17   31 1
  30   17   32 1
  31   18   19 1
  32   18   21 1
  33   18   22 1
  34   19   20 1
  35   19   33 1
  36   19   34 1
  37   20   35 1
  38   20   36 1
  39   21   37 1
  40   21   38 1
  41   21   39 1
  42   22   40 1
  43   22   41 1
  44   22   42 1

#	End of record

