#	Name: ASD03330675
#	Creating user name:	WinNT
#	Creation time:	15. 06. 2019 20:37

#	Modifying user name:	WinNT
#	Modification time:	15. 06. 2019 20:37

#	Program:	/corina/corina34_cracker 3.40 0067  02.08.2006

@<TRIPOS>MOLECULE
ASD03330675
  70   73    0    0    0
SMALL
NO_CHARGES


@<TRIPOS>ATOM
   1 C1            -0.0025     2.0004     1.0823 C.2     
   2 N2            -0.2048     0.6724     1.2561 N.pl3   
   3 C3             1.3393     2.2087     1.0055 C.2     
   4 N4             1.9450     1.0048     1.0909 N.2     
   5 C5             1.0294     0.0770     1.2274 C.2     
   6 C6             1.2863    -1.3762     1.3339 C.ar    
   7 C7             2.0106     3.5120     0.8555 C.2     
   8 O8             1.3511     4.5317     0.7888 O.2     
   9 C9             4.0228     4.8696     0.6431 C.3     
  10 N10            3.3555     3.5740     0.7922 N.am    
  11 C11            4.0822     5.2451    -0.8390 C.3     
  12 C12            2.6684     5.2383    -1.4239 C.3     
  13 C13            4.6888     6.6419    -0.9873 C.3     
  14 C14            4.9488     4.2306    -1.5878 C.3     
  15 C15            5.4222     4.7804     1.1951 C.2     
  16 N16            6.1307     5.9045     1.4205 N.am    
  17 O17            5.9109     3.6970     1.4366 O.2     
  18 C18            7.5174     5.8157     1.8845 C.3     
  19 C19           -1.4724    -0.0349     1.4714 C.3     
  20 C20           -2.6281     0.7058     0.7984 C.3     
  21 C21           -3.1589     1.8049     1.7318 C.3     
  22 N22           -2.0957     2.7603     2.0003 N.am    
  23 C23           -1.0976     3.0254     0.9567 C.3     
  24 S24           -2.0124     3.5374     3.4603 S.o2    
  25 C25            0.4224    -2.1882     2.0692 C.ar    
  26 C26            2.3903    -1.9411     0.6948 C.ar    
  27 C27            2.6244    -3.2969     0.7980 C.ar    
  28 C28            1.7669    -4.0959     1.5330 C.ar    
  29 C29            0.6674    -3.5426     2.1648 C.ar    
  30 O30           -1.2801     4.7344     3.2365 O.2     
  31 O31           -3.3269     3.5198     3.9997 O.2     
  32 C32           -1.0240     2.5412     4.5258 C.ar    
  33 C33            0.3441     2.7326     4.5777 C.ar    
  34 C34            1.1203     1.9522     5.4134 C.ar    
  35 C35            0.5272     0.9782     6.1987 C.ar    
  36 C36           -0.8432     0.7874     6.1458 C.ar    
  37 C37           -1.6180     1.5726     5.3133 C.ar    
  38 F38            1.2851     0.2144     7.0157 F       
  39 H39            3.4649     5.6306     1.1886 H       
  40 H40            3.8815     2.7608     0.8454 H       
  41 H41            2.0511     5.9610    -0.8904 H       
  42 H42            2.7108     5.5058    -2.4797 H       
  43 H43            2.2363     4.2432    -1.3182 H       
  44 H44            5.6449     6.6801    -0.4653 H       
  45 H45            4.8426     6.8609    -2.0439 H       
  46 H46            4.0109     7.3798    -0.5583 H       
  47 H47            4.5167     3.2355    -1.4821 H       
  48 H48            4.9911     4.4981    -2.6436 H       
  49 H49            5.9560     4.2355    -1.1711 H       
  50 H50            5.7224     6.7724     1.2755 H       
  51 H51            7.5484     5.2893     2.8384 H       
  52 H52            8.1122     5.2724     1.1502 H       
  53 H53            7.9235     6.8195     2.0101 H       
  54 H54           -1.3983    -1.0390     1.0539 H       
  55 H55           -1.6664    -0.1056     2.5417 H       
  56 H56           -2.2773     1.1572    -0.1296 H       
  57 H57           -3.4295     0.0011     0.5765 H       
  58 H58           -3.9951     2.3155     1.2543 H       
  59 H59           -3.4915     1.3577     2.6686 H       
  60 H60           -0.6830     4.0247     1.0897 H       
  61 H61           -1.5633     2.9476    -0.0258 H       
  62 H62           -0.4362    -1.7574     2.5628 H       
  63 H63            3.0601    -1.3185     0.1202 H       
  64 H64            3.4787    -3.7354     0.3037 H       
  65 H65            1.9540    -5.1567     1.6102 H       
  66 H66            0.0019    -4.1716     2.7374 H       
  67 H67            0.8066     3.4921     3.9648 H       
  68 H68            2.1892     2.1017     5.4536 H       
  69 H69           -1.3069     0.0280     6.7579 H       
  70 H70           -2.6869     1.4240     5.2719 H       
@<TRIPOS>BOND
   1    1    2 1
   2    1    3 2
   3    1   23 1
   4    2   19 1
   5    2    5 1
   6    3    4 1
   7    3    7 1
   8    4    5 2
   9    5    6 1
  10    6   25 ar
  11    6   26 ar
  12    7    8 2
  13    7   10 am
  14    9   10 1
  15    9   11 1
  16    9   15 1
  17    9   39 1
  18   10   40 1
  19   11   12 1
  20   11   13 1
  21   11   14 1
  22   12   41 1
  23   12   42 1
  24   12   43 1
  25   13   44 1
  26   13   45 1
  27   13   46 1
  28   14   47 1
  29   14   48 1
  30   14   49 1
  31   15   16 am
  32   15   17 2
  33   16   18 1
  34   16   50 1
  35   18   51 1
  36   18   52 1
  37   18   53 1
  38   19   20 1
  39   19   54 1
  40   19   55 1
  41   20   21 1
  42   20   56 1
  43   20   57 1
  44   21   22 1
  45   21   58 1
  46   21   59 1
  47   22   23 1
  48   22   24 am
  49   23   60 1
  50   23   61 1
  51   24   30 2
  52   24   31 2
  53   24   32 1
  54   25   29 ar
  55   25   62 1
  56   26   27 ar
  57   26   63 1
  58   27   28 ar
  59   27   64 1
  60   28   29 ar
  61   28   65 1
  62   29   66 1
  63   32   33 ar
  64   32   37 ar
  65   33   34 ar
  66   33   67 1
  67   34   35 ar
  68   34   68 1
  69   35   36 ar
  70   35   38 1
  71   36   37 ar
  72   36   69 1
  73   37   70 1

#	End of record

