#	Name: ASD05730014
#	Creating user name:	WinNT
#	Creation time:	15. 06. 2019 21:02

#	Modifying user name:	WinNT
#	Modification time:	15. 06. 2019 21:02

#	Program:	/corina/corina34_cracker 3.40 0067  02.08.2006

@<TRIPOS>MOLECULE
ASD05730014
  49   52    0    0    0
SMALL
NO_CHARGES


@<TRIPOS>ATOM
   1 N1            -0.0169     1.3221    -0.0109 N.ar    
   2 C2             0.0011    -0.0063     0.0003 C.ar    
   3 N3             1.1282    -0.7029     0.0004 N.ar    
   4 C4             2.3006    -0.0820    -0.0110 C.ar    
   5 C5             2.3205     1.3302    -0.0231 C.ar    
   6 C6             1.1037     2.0215    -0.0227 C.ar    
   7 N7             3.4836    -0.7751    -0.0108 N.am    
   8 C8             4.6633    -0.1295    -0.0220 C.2     
   9 C9             4.7401     1.2779    -0.0339 C.2     
  10 C10            3.6045     2.0242    -0.0362 C.2     
  11 N11           -1.2006    -0.6870     0.0128 N.pl3   
  12 C12           -2.4043     0.0192     0.1336 C.ar    
  13 C13           -3.5409    -0.4279    -0.5271 C.ar    
  14 C14           -4.7275     0.2679    -0.4077 C.ar    
  15 C15           -4.7843     1.4149     0.3733 C.ar    
  16 C16           -3.6475     1.8620     1.0340 C.ar    
  17 C17           -2.4623     1.1632     0.9187 C.ar    
  18 N18           -5.9868     2.1204     0.4940 N.pl3   
  19 O19            5.6945    -0.7792    -0.0214 O.2     
  20 C20            3.4622    -2.2399     0.0023 C.3     
  21 C21           -6.0792     3.2587     1.4115 C.3     
  22 C22           -7.1532     1.7206    -0.2971 C.3     
  23 C23            4.1710    -2.7886    -1.2484 C.3     
  24 C24            5.3611    -3.6319    -0.7462 C.3     
  25 C25            4.9575    -4.0394     0.6926 C.3     
  26 C26            4.2463    -2.7689     1.2209 C.3     
  27 H27            1.0814     3.1012    -0.0321 H       
  28 H28            5.7042     1.7645    -0.0423 H       
  29 H29            3.6509     3.1032    -0.0453 H       
  30 H30           -1.2111    -1.6540    -0.0622 H       
  31 H31           -3.4967    -1.3197    -1.1347 H       
  32 H32           -5.6114    -0.0797    -0.9218 H       
  33 H33           -3.6915     2.7542     1.6410 H       
  34 H34           -1.5783     1.5109     1.4325 H       
  35 H35            2.4331    -2.5977     0.0355 H       
  36 H36           -5.0978     3.4599     1.8409 H       
  37 H37           -6.4245     4.1374     0.8667 H       
  38 H38           -6.7842     3.0259     2.2095 H       
  39 H39           -7.7376     0.9893     0.2612 H       
  40 H40           -7.7689     2.5958    -0.5045 H       
  41 H41           -6.8209     1.2792    -1.2368 H       
  42 H42            3.4862    -3.4134    -1.8218 H       
  43 H43            4.5309    -1.9650    -1.8651 H       
  44 H44            5.4926    -4.5158    -1.3703 H       
  45 H45            6.2728    -3.0347    -0.7320 H       
  46 H46            4.2723    -4.8870     0.6761 H       
  47 H47            5.8395    -4.2658     1.2917 H       
  48 H48            4.9780    -2.0324     1.5529 H       
  49 H49            3.5643    -3.0231     2.0323 H       
@<TRIPOS>BOND
   1    1    2 ar
   2    1    6 ar
   3    2    3 ar
   4    2   11 1
   5    3    4 ar
   6    4    5 ar
   7    4    7 1
   8    5    6 ar
   9    5   10 1
  10    6   27 1
  11    7    8 am
  12    7   20 1
  13    8    9 1
  14    8   19 2
  15    9   10 2
  16    9   28 1
  17   10   29 1
  18   11   12 1
  19   11   30 1
  20   12   13 ar
  21   12   17 ar
  22   13   14 ar
  23   13   31 1
  24   14   15 ar
  25   14   32 1
  26   15   16 ar
  27   15   18 1
  28   16   17 ar
  29   16   33 1
  30   17   34 1
  31   18   22 1
  32   18   21 1
  33   20   23 1
  34   20   26 1
  35   20   35 1
  36   21   36 1
  37   21   37 1
  38   21   38 1
  39   22   39 1
  40   22   40 1
  41   22   41 1
  42   23   24 1
  43   23   42 1
  44   23   43 1
  45   24   25 1
  46   24   44 1
  47   24   45 1
  48   25   26 1
  49   25   46 1
  50   25   47 1
  51   26   48 1
  52   26   49 1

#	End of record

