#	Name: ASD03740110
#	Creating user name:	WinNT
#	Creation time:	15. 06. 2019 20:46

#	Modifying user name:	WinNT
#	Modification time:	15. 06. 2019 20:46

#	Program:	/corina/corina34_cracker 3.40 0067  02.08.2006

@<TRIPOS>MOLECULE
ASD03740110
  50   53    0    0    0
SMALL
NO_CHARGES


@<TRIPOS>ATOM
   1 C1            -0.0168     1.3849     0.0097 C.ar    
   2 C2             0.0021    -0.0041     0.0020 C.ar    
   3 C3             1.1850    -0.6877    -0.0125 C.ar    
   4 C4             2.3894     0.0113    -0.0203 C.ar    
   5 C5             2.3718     1.4195    -0.0131 C.ar    
   6 C6             1.1486     2.0963     0.0023 C.ar    
   7 N7             3.7063    -0.3680    -0.0346 N.pl3   
   8 N8             4.5133     0.7743    -0.0364 N.2     
   9 C9             3.7704     1.8474    -0.0241 C.2     
  10 C10            4.1915    -1.7503    -0.0454 C.3     
  11 C11            4.3443    -2.2179    -1.4698 C.ar    
  12 C12            5.5439    -2.0358    -2.1322 C.ar    
  13 C13            5.6841    -2.4647    -3.4388 C.ar    
  14 C14            4.6248    -3.0762    -4.0829 C.ar    
  15 C15            3.4254    -3.2591    -3.4203 C.ar    
  16 C16            3.2867    -2.8341    -2.1122 C.ar    
  17 O17            4.2163     3.1315    -0.0222 O.3     
  18 C18            5.6318     3.3268    -0.0344 C.3     
  19 C19            5.9400     4.8254    -0.0302 C.3     
  20 C20            7.4556     5.0345    -0.0433 C.3     
  21 N21            7.7515     6.4734    -0.0393 N.3     
  22 C22            9.1879     6.7168     0.1875 C.3     
  23 C23            9.7037     7.5517    -1.0034 C.3     
  24 C24            8.4125     8.2158    -1.5500 C.3     
  25 C25            7.3652     7.0973    -1.3228 C.3     
  26 H26           -0.9621     1.9071     0.0170 H       
  27 H27           -0.9296    -0.5502     0.0080 H       
  28 H28            1.1859    -1.7677    -0.0176 H       
  29 H29            1.1256     3.1760     0.0077 H       
  30 H30            5.1565    -1.8005     0.4590 H       
  31 H31            3.4771    -2.3902     0.4724 H       
  32 H32            6.3715    -1.5581    -1.6289 H       
  33 H33            6.6211    -2.3218    -3.9565 H       
  34 H34            4.7340    -3.4106    -5.1040 H       
  35 H35            2.5977    -3.7365    -3.9236 H       
  36 H36            2.3497    -2.9770    -1.5945 H       
  37 H37            6.0702     2.8632     0.8494 H       
  38 H38            6.0537     2.8716    -0.9305 H       
  39 H39            5.5016     5.2889    -0.9140 H       
  40 H40            5.5182     5.2806     0.8659 H       
  41 H41            7.8940     4.5709     0.8405 H       
  42 H42            7.8774     4.5793    -0.9394 H       
  43 H43            9.3281     7.2697     1.1164 H       
  44 H44            9.7220     5.7678     0.2341 H       
  45 H45           10.4126     8.3077    -0.6657 H       
  46 H46           10.1554     6.9082    -1.7583 H       
  47 H47            8.1605     9.1087    -0.9780 H       
  48 H48            8.5118     8.4482    -2.6103 H       
  49 H49            7.4105     6.3654    -2.1293 H       
  50 H50            6.3644     7.5233    -1.2516 H       
@<TRIPOS>BOND
   1    1    2 ar
   2    1    6 ar
   3    1   26 1
   4    2    3 ar
   5    2   27 1
   6    3    4 ar
   7    3   28 1
   8    4    5 ar
   9    4    7 1
  10    5    6 ar
  11    5    9 1
  12    6   29 1
  13    7    8 1
  14    7   10 1
  15    8    9 2
  16    9   17 1
  17   10   11 1
  18   10   30 1
  19   10   31 1
  20   11   12 ar
  21   11   16 ar
  22   12   13 ar
  23   12   32 1
  24   13   14 ar
  25   13   33 1
  26   14   15 ar
  27   14   34 1
  28   15   16 ar
  29   15   35 1
  30   16   36 1
  31   17   18 1
  32   18   19 1
  33   18   37 1
  34   18   38 1
  35   19   20 1
  36   19   39 1
  37   19   40 1
  38   20   21 1
  39   20   41 1
  40   20   42 1
  41   21   22 1
  42   21   25 1
  43   22   23 1
  44   22   43 1
  45   22   44 1
  46   23   24 1
  47   23   45 1
  48   23   46 1
  49   24   25 1
  50   24   47 1
  51   24   48 1
  52   25   49 1
  53   25   50 1

#	End of record

