#	Name: ASD08151093
#	Creating user name:	WinNT
#	Creation time:	15. 06. 2019 21:17

#	Modifying user name:	WinNT
#	Modification time:	15. 06. 2019 21:17

#	Program:	/corina/corina34_cracker 3.40 0067  02.08.2006

@<TRIPOS>MOLECULE
ASD08151093
  43   44    0    0    0
SMALL
NO_CHARGES


@<TRIPOS>ATOM
   1 C1            -0.0184     1.5028     0.0103 C.2     
   2 C2             0.0322    -0.0029    -0.0274 C.3     
   3 C3             1.1828     3.6854    -0.0918 C.ar    
   4 C4             1.2265     2.2788     0.0069 C.ar    
   5 C5             2.4604     1.6258     0.1020 C.ar    
   6 C6             3.6291     2.3549     0.0992 C.ar    
   7 C7             3.5890     3.7517     0.0013 C.ar    
   8 C8             2.3647     4.4129    -0.0935 C.ar    
   9 C9            -0.1198     4.3832    -0.1990 C.ar    
  10 C10           -0.5428     5.2359     0.8200 C.ar    
  11 C11           -1.7586     5.8841     0.7139 C.ar    
  12 C12           -2.5557     5.6871    -0.4026 C.ar    
  13 C13           -2.1397     4.8419    -1.4149 C.ar    
  14 C14           -0.9247     4.1939    -1.3218 C.ar    
  15 C15            4.8082     4.5027    -0.0009 C.1     
  16 C16            5.8078     5.1184    -0.0028 C.1     
  17 Si17           7.4256     6.1148    -0.0058 Si      
  18 C18            7.0359     7.9312    -0.1467 C.3     
  19 C19            8.3520     5.7997     1.5795 C.3     
  20 C20            8.4751     5.5907    -1.4531 C.3     
  21 N21            2.3260     5.8890    -0.1973 N.pl3   
  22 O22            2.2667     6.5691     0.8115 O.2     
  23 O23            2.3533     6.4235    -1.2914 O.2     
  24 F24            4.8183     1.7206     0.1916 F       
  25 F25           -2.1710     6.7105     1.7000 F       
  26 O26           -1.0887     2.0732     0.0384 O.2     
  27 H27            1.0653    -0.3289    -0.1476 H       
  28 H28           -0.3691    -0.4033     0.9036 H       
  29 H29           -0.5631    -0.3656    -0.8653 H       
  30 H30            2.4965     0.5491     0.1780 H       
  31 H31            0.0782     5.3891     1.6903 H       
  32 H32           -3.5053     6.1954    -0.4821 H       
  33 H33           -2.7652     4.6919    -2.2825 H       
  34 H34           -0.5995     3.5380    -2.1158 H       
  35 H35            6.4218     8.2378     0.7000 H       
  36 H36            7.9640     8.5028    -0.1485 H       
  37 H37            6.4939     8.1156    -1.0743 H       
  38 H38            8.5800     4.7370     1.6620 H       
  39 H39            9.2800     6.3713     1.5778 H       
  40 H40            7.7379     6.1063     2.4263 H       
  41 H41            7.9331     5.7751    -2.3806 H       
  42 H42            9.4032     6.1624    -1.4548 H       
  43 H43            8.7031     4.5280    -1.3706 H       
@<TRIPOS>BOND
   1    1    2 1
   2    1    4 1
   3    1   26 2
   4    2   27 1
   5    2   28 1
   6    2   29 1
   7    3    4 ar
   8    3    8 ar
   9    3    9 1
  10    4    5 ar
  11    5    6 ar
  12    5   30 1
  13    6    7 ar
  14    6   24 1
  15    7    8 ar
  16    7   15 1
  17    8   21 1
  18    9   10 ar
  19    9   14 ar
  20   10   11 ar
  21   10   31 1
  22   11   12 ar
  23   11   25 1
  24   12   13 ar
  25   12   32 1
  26   13   14 ar
  27   13   33 1
  28   14   34 1
  29   15   16 3
  30   16   17 1
  31   17   18 1
  32   17   19 1
  33   17   20 1
  34   18   35 1
  35   18   36 1
  36   18   37 1
  37   19   38 1
  38   19   39 1
  39   19   40 1
  40   20   41 1
  41   20   42 1
  42   20   43 1
  43   21   22 2
  44   21   23 2

#	End of record

