#	Name: ASD07300596
#	Creating user name:	WinNT
#	Creation time:	15. 06. 2019 21:10

#	Modifying user name:	WinNT
#	Modification time:	15. 06. 2019 21:10

#	Program:	/corina/corina34_cracker 3.40 0067  02.08.2006

@<TRIPOS>MOLECULE
ASD07300596
  51   54    0    0    0
SMALL
NO_CHARGES


@<TRIPOS>ATOM
   1 C1            -0.0173     1.4133    -0.0101 C.2     
   2 C2             0.0021    -0.0041     0.0020 C.2     
   3 N3             1.1762     2.0865    -0.0173 N.pl3   
   4 N4             1.1569    -0.6390     0.0061 N.2     
   5 C5             2.3148     0.0278    -0.0010 C.2     
   6 C6             2.3462     1.3763    -0.0126 C.2     
   7 N7            -0.9999     2.3007    -0.0113 N.2     
   8 C8            -0.4912     3.5279    -0.0253 C.2     
   9 C9             0.8846     3.4244    -0.0285 C.2     
  10 N10           -1.1861    -0.7177     0.0100 N.pl3   
  11 C11           -1.1896    -2.1845    -0.1073 C.3     
  12 C12           -2.0522    -2.7579     1.0227 C.3     
  13 O13           -3.3301    -2.1171     1.0109 O.3     
  14 C14           -3.2811    -0.7092     1.2547 C.3     
  15 C15           -2.4811    -0.0314     0.1422 C.3     
  16 C16            2.6123     6.6503    -0.8746 C.ar    
  17 C17            1.6834     5.6321    -0.8981 C.ar    
  18 C18            1.8531     4.5384    -0.0391 C.ar    
  19 C19            2.9679     4.5319     0.8101 C.ar    
  20 C20            3.8462     5.5929     0.7673 C.ar    
  21 N21            3.6485     6.6040    -0.0583 N.ar    
  22 C22            2.4455     7.8298    -1.7977 C.3     
  23 C23            2.4492     9.1224    -0.9792 C.3     
  24 C24            2.4054    10.3247    -1.9245 C.3     
  25 C25            1.2244     9.1493    -0.0627 C.3     
  26 C26           -1.2807     4.8115    -0.0312 C.3     
  27 H27            3.2434    -0.5235     0.0027 H       
  28 H28            3.2935     1.8949    -0.0181 H       
  29 H29           -1.6073    -2.4747    -1.0714 H       
  30 H30           -0.1709    -2.5622    -0.0194 H       
  31 H31           -2.1812    -3.8300     0.8742 H       
  32 H32           -1.5638    -2.5785     1.9805 H       
  33 H33           -4.2942    -0.3074     1.2730 H       
  34 H34           -2.7971    -0.5224     2.2133 H       
  35 H35           -2.3172     1.0161     0.3953 H       
  36 H36           -3.0310    -0.1011    -0.7963 H       
  37 H37            0.8377     5.6768    -1.5683 H       
  38 H38            3.1359     3.7082     1.4881 H       
  39 H39            4.7083     5.5972     1.4177 H       
  40 H40            3.2675     7.8503    -2.5131 H       
  41 H41            1.5000     7.7414    -2.3329 H       
  42 H42            3.3558     9.1677    -0.3756 H       
  43 H43            1.4989    10.2795    -2.5280 H       
  44 H44            2.4081    11.2456    -1.3414 H       
  45 H45            3.2779    10.3055    -2.5774 H       
  46 H46            0.3179     9.1041    -0.6662 H       
  47 H47            1.2557     8.2928     0.6108 H       
  48 H48            1.2271    10.0703     0.5204 H       
  49 H49           -1.4639     5.1301     0.9949 H       
  50 H50           -0.7166     5.5826    -0.5559 H       
  51 H51           -2.2327     4.6502    -0.5371 H       
@<TRIPOS>BOND
   1    1    2 1
   2    1    3 1
   3    1    7 2
   4    2    4 2
   5    2   10 1
   6    3    6 1
   7    3    9 1
   8    4    5 1
   9    5    6 2
  10    5   27 1
  11    6   28 1
  12    7    8 1
  13    8    9 2
  14    8   26 1
  15    9   18 1
  16   10   11 1
  17   10   15 1
  18   11   12 1
  19   11   29 1
  20   11   30 1
  21   12   13 1
  22   12   31 1
  23   12   32 1
  24   13   14 1
  25   14   15 1
  26   14   33 1
  27   14   34 1
  28   15   35 1
  29   15   36 1
  30   16   17 ar
  31   16   21 ar
  32   16   22 1
  33   17   18 ar
  34   17   37 1
  35   18   19 ar
  36   19   20 ar
  37   19   38 1
  38   20   21 ar
  39   20   39 1
  40   22   23 1
  41   22   40 1
  42   22   41 1
  43   23   24 1
  44   23   25 1
  45   23   42 1
  46   24   43 1
  47   24   44 1
  48   24   45 1
  49   25   46 1
  50   25   47 1
  51   25   48 1
  52   26   49 1
  53   26   50 1
  54   26   51 1

#	End of record

