#	Name: ASD08070090
#	Creating user name:	WinNT
#	Creation time:	15. 06. 2019 21:14

#	Modifying user name:	WinNT
#	Modification time:	15. 06. 2019 21:14

#	Program:	/corina/corina34_cracker 3.40 0067  02.08.2006

@<TRIPOS>MOLECULE
ASD08070090
  41   43    0    0    0
SMALL
NO_CHARGES


@<TRIPOS>ATOM
   1 C1            -0.0169     1.3934     0.0097 C.ar    
   2 C2             0.0021    -0.0041     0.0020 C.ar    
   3 C3             1.1669     2.0986     0.0022 C.ar    
   4 C4             2.3796     1.4298    -0.0134 C.ar    
   5 C5             2.4148     0.0455    -0.0212 C.ar    
   6 C6             1.2279    -0.6805    -0.0133 C.ar    
   7 O7             3.6094    -0.6043    -0.0360 O.3     
   8 C8            -1.2633    -0.7628     0.0105 C.2     
   9 O9            -1.2433    -1.9785     0.0038 O.2     
  10 N10           -2.4414    -0.1083     0.0257 N.am    
  11 C11            4.7877     0.2042    -0.0430 C.3     
  12 O12            1.2582    -2.0375    -0.0204 O.3     
  13 C13           -3.6978    -0.8616     0.0341 C.3     
  14 C14           -4.7957    -0.0031     0.6590 C.3     
  15 C15           -4.0604    -1.2388    -1.3785 C.ar    
  16 C16           -5.3469    -1.1552    -1.8608 C.ar    
  17 C17           -6.4983    -0.6694    -1.0199 C.3     
  18 C18           -6.1381    -0.7179     0.4636 C.3     
  19 C19           -3.0416    -1.6865    -2.2100 C.ar    
  20 C20           -3.3095    -2.0515    -3.5128 C.ar    
  21 C21           -4.6025    -1.9717    -3.9960 C.ar    
  22 C22           -5.6151    -1.5255    -3.1726 C.ar    
  23 H23           -0.9594     1.9206     0.0170 H       
  24 H24            1.1490     3.1784     0.0081 H       
  25 H25            3.3025     1.9907    -0.0199 H       
  26 H26           -2.4574     0.8616     0.0310 H       
  27 H27            5.6687    -0.4376    -0.0548 H       
  28 H28            4.7881     0.8382    -0.9296 H       
  29 H29            4.8051     0.8286     0.8503 H       
  30 H30            1.2756    -2.4352     0.8609 H       
  31 H31           -3.5696    -1.7679     0.6259 H       
  32 H32           -4.5999     0.1257     1.7235 H       
  33 H33           -4.8236     0.9706     0.1699 H       
  34 H34           -6.7387     0.3568    -1.2980 H       
  35 H35           -7.3671    -1.3027    -1.1996 H       
  36 H36           -6.0521    -1.7553     0.7867 H       
  37 H37           -6.9101    -0.2144     1.0455 H       
  38 H38           -2.0314    -1.7496    -1.8331 H       
  39 H39           -2.5122    -2.3988    -4.1532 H       
  40 H40           -4.8190    -2.2580    -5.0147 H       
  41 H41           -6.6249    -1.4640    -3.5506 H       
@<TRIPOS>BOND
   1    1    2 ar
   2    1    3 ar
   3    1   23 1
   4    2    8 1
   5    2    6 ar
   6    3    4 ar
   7    3   24 1
   8    4    5 ar
   9    4   25 1
  10    5    6 ar
  11    5    7 1
  12    6   12 1
  13    7   11 1
  14    8    9 2
  15    8   10 am
  16   10   13 1
  17   10   26 1
  18   11   27 1
  19   11   28 1
  20   11   29 1
  21   12   30 1
  22   13   14 1
  23   13   15 1
  24   13   31 1
  25   14   18 1
  26   14   32 1
  27   14   33 1
  28   15   16 ar
  29   15   19 ar
  30   16   17 1
  31   16   22 ar
  32   17   18 1
  33   17   34 1
  34   17   35 1
  35   18   36 1
  36   18   37 1
  37   19   20 ar
  38   19   38 1
  39   20   21 ar
  40   20   39 1
  41   21   22 ar
  42   21   40 1
  43   22   41 1

#	End of record

