#	Name: ASD02032013
#	Creating user name:	WinNT
#	Creation time:	15. 06. 2019 20:16

#	Modifying user name:	WinNT
#	Modification time:	15. 06. 2019 20:16

#	Program:	/corina/corina34_cracker 3.40 0067  02.08.2006

@<TRIPOS>MOLECULE
ASD02032013
  61   65    0    0    0
SMALL
NO_CHARGES


@<TRIPOS>ATOM
   1 C1            -0.7872    -0.0952    -2.1717 C.ar    
   2 C2            -0.3060    -0.5879    -0.9669 C.ar    
   3 C3            -1.0677    -0.5087     0.1789 C.ar    
   4 C4            -2.3332     0.0692     0.1357 C.ar    
   5 C5            -2.8211     0.5685    -1.0847 C.ar    
   6 C6            -2.0331     0.4859    -2.2371 C.ar    
   7 N7            -3.0984     0.1488     1.2821 N.am    
   8 C8            -4.3241     0.6993     1.2779 C.2     
   9 C9            -4.9010     1.2415     0.0450 C.2     
  10 C10           -4.1568     1.1797    -1.1355 C.2     
  11 C11            0.0613    -0.1914    -3.4134 C.3     
  12 C12           -4.6982     1.7137    -2.4016 C.ar    
  13 O13           -4.9644     0.7480     2.3130 O.2     
  14 C14           -6.2416     1.8403     0.0501 C.2     
  15 C15           -4.1166     2.8365    -2.9954 C.ar    
  16 C16           -4.6275     3.3297    -4.1778 C.ar    
  17 C17           -5.7136     2.7150    -4.7758 C.ar    
  18 C18           -6.2951     1.6027    -4.1930 C.ar    
  19 C19           -5.7908     1.0949    -3.0139 C.ar    
  20 C20           -6.5378     3.3163     0.1917 C.3     
  21 C21           -8.0761     3.3941     0.1334 C.3     
  22 N22           -8.4879     1.9910    -0.0313 N.am    
  23 N23           -7.3494     1.1886    -0.0712 N.2     
  24 C24           -8.6273     3.9613     1.4162 C.ar    
  25 C25           -9.0010     5.2907     1.4796 C.ar    
  26 C26           -9.5070     5.8112     2.6558 C.ar    
  27 C27           -9.6394     5.0017     3.7695 C.ar    
  28 C28           -9.2654     3.6715     3.7056 C.ar    
  29 C29           -8.7644     3.1505     2.5275 C.ar    
  30 Br30         -10.3310     5.7134     5.3792 Br      
  31 C31           -9.7588     1.5538    -0.1316 C.2     
  32 C32          -10.0385     0.0824    -0.2977 C.3     
  33 O33          -10.6776     2.3448    -0.0881 O.2     
  34 C34          -11.5493    -0.1428    -0.3861 C.3     
  35 C35          -11.8290    -1.6142    -0.5522 C.2     
  36 O36          -10.9139    -2.4020    -0.5955 O.2     
  37 O37          -13.0948    -2.0497    -0.6521 O.3     
  38 H38            0.6748    -1.0382    -0.9269 H       
  39 H39           -0.6826    -0.8957     1.1107 H       
  40 H40           -2.4043     0.8684    -3.1765 H       
  41 H41           -2.7418    -0.2025     2.1129 H       
  42 H42           -0.1463    -1.1321    -3.9234 H       
  43 H43           -0.1711     0.6410    -4.0777 H       
  44 H44            1.1151    -0.1527    -3.1373 H       
  45 H45           -3.2691     3.3173    -2.5296 H       
  46 H46           -4.1790     4.1979    -4.6378 H       
  47 H47           -6.1095     3.1055    -5.7017 H       
  48 H48           -7.1427     1.1282    -4.6650 H       
  49 H49           -6.2453     0.2266    -2.5603 H       
  50 H50           -6.1722     3.6894     1.1484 H       
  51 H51           -6.0951     3.8758    -0.6323 H       
  52 H52           -8.3978     3.9907    -0.7203 H       
  53 H53           -8.8973     5.9228     0.6100 H       
  54 H54           -9.7986     6.8499     2.7053 H       
  55 H55           -9.3683     3.0391     4.5751 H       
  56 H56           -8.4723     2.1120     2.4775 H       
  57 H57           -9.5636    -0.2770    -1.2106 H       
  58 H58           -9.6395    -0.4622     0.5580 H       
  59 H59          -12.0242     0.2165     0.5269 H       
  60 H60          -11.9483     0.4018    -1.2418 H       
  61 H61          -13.2244    -3.0021    -0.7574 H       
@<TRIPOS>BOND
   1    1    2 ar
   2    1   11 1
   3    1    6 ar
   4    2    3 ar
   5    2   38 1
   6    3    4 ar
   7    3   39 1
   8    4    5 ar
   9    4    7 1
  10    5    6 ar
  11    5   10 1
  12    6   40 1
  13    7    8 am
  14    7   41 1
  15    8    9 1
  16    8   13 2
  17    9   10 2
  18    9   14 1
  19   10   12 1
  20   11   42 1
  21   11   43 1
  22   11   44 1
  23   12   15 ar
  24   12   19 ar
  25   14   20 1
  26   14   23 2
  27   15   16 ar
  28   15   45 1
  29   16   17 ar
  30   16   46 1
  31   17   18 ar
  32   17   47 1
  33   18   19 ar
  34   18   48 1
  35   19   49 1
  36   20   21 1
  37   20   50 1
  38   20   51 1
  39   21   22 1
  40   21   24 1
  41   21   52 1
  42   22   23 1
  43   22   31 am
  44   24   25 ar
  45   24   29 ar
  46   25   26 ar
  47   25   53 1
  48   26   27 ar
  49   26   54 1
  50   27   28 ar
  51   27   30 1
  52   28   29 ar
  53   28   55 1
  54   29   56 1
  55   31   32 1
  56   31   33 2
  57   32   34 1
  58   32   57 1
  59   32   58 1
  60   34   35 1
  61   34   59 1
  62   34   60 1
  63   35   36 2
  64   35   37 1
  65   37   61 1

#	End of record

