#	Name: ASD02198787
#	Creating user name:	WinNT
#	Creation time:	15. 06. 2019 20:20

#	Modifying user name:	WinNT
#	Modification time:	15. 06. 2019 20:20

#	Program:	/corina/corina34_cracker 3.40 0067  02.08.2006

@<TRIPOS>MOLECULE
ASD02198787
  46   50    0    0    0
SMALL
NO_CHARGES


@<TRIPOS>ATOM
   1 F1             2.2529    -1.7085     2.4712 F       
   2 C2            -0.0433     1.5018    -0.1148 C.2     
   3 C3            -0.0731     0.1623     0.0976 C.2     
   4 N4             1.0716    -0.5396     0.2600 N.pl3   
   5 N5             2.2361    -0.0050     0.2263 N.2     
   6 C6             2.4078     1.2841     0.0281 C.2     
   7 C7             1.2219     2.1357    -0.1604 C.2     
   8 C8             0.9801    -1.9172     0.4759 C.ar    
   9 C9             1.5815    -2.4872     1.5949 C.ar    
  10 C10            1.4920    -3.8481     1.8087 C.ar    
  11 C11            0.7986    -4.6503     0.9033 C.ar    
  12 C12            0.1970    -4.0759    -0.2164 C.ar    
  13 C13            0.2839    -2.7162    -0.4239 C.ar    
  14 C14            3.7649     1.8662    -0.0041 C.2     
  15 N15            4.3071     2.6062    -1.0171 N.pl3   
  16 N16            5.6092     2.9572    -0.6391 N.2     
  17 C17            5.8527     2.4574     0.5462 C.2     
  18 C18            4.7203     1.7705     0.9838 C.2     
  19 C19            3.6742     2.9516    -2.2179 C.ar    
  20 C20            3.8087     4.2349    -2.7312 C.ar    
  21 C21            3.1833     4.5724    -3.9155 C.ar    
  22 C22            2.4239     3.6339    -4.5899 C.ar    
  23 C23            2.2876     2.3553    -4.0811 C.ar    
  24 C24            2.9156     2.0099    -2.9005 C.ar    
  25 O25            1.3250     3.3386    -0.3482 O.2     
  26 C26            0.7013    -6.1120     1.1301 C.ar    
  27 N27            0.0378    -6.8598     0.2584 N.ar    
  28 N28            1.2844    -6.6419     2.1970 N.ar    
  29 C29            1.2165    -7.9416     2.4283 C.ar    
  30 C30            0.5256    -8.7519     1.5397 C.ar    
  31 C31           -0.0677    -8.1660     0.4314 C.ar    
  32 H32           -0.9546     2.0655    -0.2493 H       
  33 H33           -1.0230    -0.3501     0.1380 H       
  34 H34            1.9588    -4.2910     2.6761 H       
  35 H35           -0.3404    -4.6961    -0.9186 H       
  36 H36           -0.1822    -2.2721    -1.2911 H       
  37 H37            6.7762     2.5630     1.0960 H       
  38 H38            4.6141     1.2512     1.9248 H       
  39 H39            4.4014     4.9683    -2.2048 H       
  40 H40            3.2872     5.5703    -4.3151 H       
  41 H41            1.9358     3.9003    -5.5158 H       
  42 H42            1.6933     1.6249    -4.6098 H       
  43 H43            2.8088     1.0111    -2.5036 H       
  44 H44            1.6936    -8.3674     3.2986 H       
  45 H45            0.4550    -9.8169     1.7048 H       
  46 H46           -0.6128    -8.7691    -0.2796 H       
@<TRIPOS>BOND
   1    1    9 1
   2    2    3 2
   3    2    7 1
   4    2   32 1
   5    3    4 1
   6    3   33 1
   7    4    5 1
   8    4    8 1
   9    5    6 2
  10    6    7 1
  11    6   14 1
  12    7   25 2
  13    8    9 ar
  14    8   13 ar
  15    9   10 ar
  16   10   11 ar
  17   10   34 1
  18   11   12 ar
  19   11   26 1
  20   12   13 ar
  21   12   35 1
  22   13   36 1
  23   14   15 1
  24   14   18 2
  25   15   16 1
  26   15   19 1
  27   16   17 2
  28   17   18 1
  29   17   37 1
  30   18   38 1
  31   19   20 ar
  32   19   24 ar
  33   20   21 ar
  34   20   39 1
  35   21   22 ar
  36   21   40 1
  37   22   23 ar
  38   22   41 1
  39   23   24 ar
  40   23   42 1
  41   24   43 1
  42   26   27 ar
  43   26   28 ar
  44   27   31 ar
  45   28   29 ar
  46   29   30 ar
  47   29   44 1
  48   30   31 ar
  49   30   45 1
  50   31   46 1

#	End of record

