#	Name: ASD02230001
#	Creating user name:	WinNT
#	Creation time:	15. 06. 2019 20:20

#	Modifying user name:	WinNT
#	Modification time:	15. 06. 2019 20:20

#	Program:	/corina/corina34_cracker 3.40 0067  02.08.2006

@<TRIPOS>MOLECULE
ASD02230001
  61   66    0    0    0
SMALL
NO_CHARGES


@<TRIPOS>ATOM
   1 C1            -0.2839     0.1865    -1.6621 C.ar    
   2 C2            -0.4760    -1.2032    -1.4582 C.ar    
   3 N3            -1.6567    -1.6664    -1.0906 N.ar    
   4 C4            -2.6768    -0.8208    -0.9096 C.ar    
   5 C5            -2.4840     0.5705    -1.1137 C.ar    
   6 N6            -1.2823     1.0303    -1.4813 N.ar    
   7 C7            -3.9419    -1.2976    -0.5184 C.ar    
   8 C8            -4.9710    -0.4310    -0.3382 C.ar    
   9 C9            -4.7933     0.9501    -0.5371 C.ar    
  10 C10           -3.5601     1.4516    -0.9219 C.ar    
  11 C11            1.0454     0.6945    -2.0739 C.ar    
  12 C12            0.6530    -2.1403    -1.6590 C.ar    
  13 C13            0.9019    -3.1470    -0.7261 C.ar    
  14 C14            1.4685    -2.0233    -2.7846 C.ar    
  15 C15            2.5186    -2.8997    -2.9663 C.ar    
  16 C16            2.7632    -3.8932    -2.0351 C.ar    
  17 C17            1.9551    -4.0173    -0.9190 C.ar    
  18 C18            1.1484     1.6383    -3.0954 C.ar    
  19 C19            2.3893     2.1080    -3.4743 C.ar    
  20 C20            3.5298     1.6446    -2.8431 C.ar    
  21 C21            3.4340     0.7083    -1.8291 C.ar    
  22 C22            2.1983     0.2350    -1.4378 C.ar    
  23 C23           -5.9289     1.8721    -0.3348 C.2     
  24 O24           -7.1304     1.3894     0.0390 O.3     
  25 O25           -5.7802     3.0656    -0.5054 O.2     
  26 C26           -8.1027     2.2971     0.3069 C.ar    
  27 C27           -8.7658     2.9311    -0.7393 C.ar    
  28 C28           -8.4365     2.5858     1.6265 C.ar    
  29 C29           -9.4149     3.4978     1.9026 C.ar    
  30 C30          -10.0836     4.1445     0.8523 C.ar    
  31 C31           -9.7454     3.8457    -0.4762 C.ar    
  32 C32          -11.1328     5.1227     1.1412 C.2     
  33 C33          -11.1670     6.3212     0.4560 C.2     
  34 C34          -12.3216     7.2362     0.5595 C.2     
  35 N35          -12.2841     8.3900    -0.1386 N.am    
  36 C36          -11.2347     8.7099    -0.9085 C.2     
  37 N37          -10.1542     7.9297    -1.0500 N.am    
  38 C38          -10.0480     6.7480    -0.4079 C.2     
  39 O39           -9.0618     6.0491    -0.5443 O.2     
  40 S40          -11.2771    10.1958    -1.7578 S.2     
  41 O41          -13.2800     6.9571     1.2545 O.2     
  42 H42           -4.0944    -2.3553    -0.3617 H       
  43 H43           -5.9382    -0.8066    -0.0386 H       
  44 H44           -3.4278     2.5127    -1.0733 H       
  45 H45            0.2717    -3.2449     0.1455 H       
  46 H46            1.2780    -1.2486    -3.5126 H       
  47 H47            3.1506    -2.8102    -3.8375 H       
  48 H48            3.5859    -4.5772    -2.1820 H       
  49 H49            2.1511    -4.7949    -0.1955 H       
  50 H50            0.2588     2.0006    -3.5892 H       
  51 H51            2.4704     2.8387    -4.2654 H       
  52 H52            4.4988     2.0149    -3.1433 H       
  53 H53            4.3278     0.3502    -1.3400 H       
  54 H54            2.1247    -0.4959    -0.6461 H       
  55 H55           -8.5050     2.6997    -1.7614 H       
  56 H56           -7.9210     2.0873     2.4340 H       
  57 H57           -9.6735     3.7205     2.9273 H       
  58 H58          -10.2565     4.3401    -1.2891 H       
  59 H59          -11.8805     4.9074     1.8902 H       
  60 H60          -13.0343     9.0023    -0.0822 H       
  61 H61           -9.4300     8.2234    -1.6245 H       
@<TRIPOS>BOND
   1    1    2 ar
   2    1   11 1
   3    1    6 ar
   4    2    3 ar
   5    2   12 1
   6    3    4 ar
   7    4    5 ar
   8    4    7 ar
   9    5    6 ar
  10    5   10 ar
  11    7    8 ar
  12    7   42 1
  13    8    9 ar
  14    8   43 1
  15    9   10 ar
  16    9   23 1
  17   10   44 1
  18   11   18 ar
  19   11   22 ar
  20   12   13 ar
  21   12   14 ar
  22   13   17 ar
  23   13   45 1
  24   14   15 ar
  25   14   46 1
  26   15   16 ar
  27   15   47 1
  28   16   17 ar
  29   16   48 1
  30   17   49 1
  31   18   19 ar
  32   18   50 1
  33   19   20 ar
  34   19   51 1
  35   20   21 ar
  36   20   52 1
  37   21   22 ar
  38   21   53 1
  39   22   54 1
  40   23   24 1
  41   23   25 2
  42   24   26 1
  43   26   27 ar
  44   26   28 ar
  45   27   31 ar
  46   27   55 1
  47   28   29 ar
  48   28   56 1
  49   29   30 ar
  50   29   57 1
  51   30   31 ar
  52   30   32 1
  53   31   58 1
  54   32   33 2
  55   32   59 1
  56   33   34 1
  57   33   38 1
  58   34   35 am
  59   34   41 2
  60   35   36 am
  61   35   60 1
  62   36   37 am
  63   36   40 2
  64   37   38 am
  65   37   61 1
  66   38   39 2

#	End of record

