#	Name: ASD01708036
#	Creating user name:	WinNT
#	Creation time:	15. 06. 2019 19:22

#	Modifying user name:	WinNT
#	Modification time:	15. 06. 2019 19:22

#	Program:	/corina/corina34_cracker 3.40 0067  02.08.2006

@<TRIPOS>MOLECULE
ASD01708036
  68   72    0    0    0
SMALL
NO_CHARGES


@<TRIPOS>ATOM
   1 C1            -0.0162     1.3436     0.0094 C.2     
   2 N2            -0.0091    -0.0042     0.0041 N.am    
   3 O3             1.0335     1.9570     0.0192 O.2     
   4 C4             1.2464    -0.7631    -0.1210 C.3     
   5 C5            -1.2511    -0.7742     0.1288 C.3     
   6 C6            -1.0507    -1.9082     1.1036 C.ar    
   7 C7             0.1957    -2.2656     1.5707 C.ar    
   8 C8             1.4510    -1.5479     1.1736 C.3     
   9 C9            -2.1789    -2.5999     1.5280 C.ar    
  10 C10           -2.0696    -3.6518     2.4114 C.ar    
  11 C11           -0.8087    -4.0265     2.8840 C.ar    
  12 C12            0.3192    -3.3269     2.4576 C.ar    
  13 Cl13           1.8891    -3.7860     3.0391 Cl      
  14 Cl14          -3.4881    -4.5052     2.9340 Cl      
  15 C15           -0.6724    -5.1545     3.8275 C.2     
  16 N16           -0.7278    -4.9326     5.1557 N.am    
  17 O17           -0.5103    -6.2833     3.4061 O.2     
  18 C18           -0.5926    -6.0516     6.0916 C.3     
  19 C19            0.8683    -6.3219     6.3437 C.2     
  20 O20            1.2343    -7.3102     7.1749 O.3     
  21 O21            1.7102    -5.6489     5.7977 O.2     
  22 C22           -1.2812    -5.6985     7.4115 C.3     
  23 C23           -1.2983     2.0749    -0.0027 C.ar    
  24 C24           -1.4171     3.2849     0.6943 C.ar    
  25 C25           -2.5970     3.9677     0.6896 C.ar    
  26 C26           -3.6926     3.4603    -0.0128 C.ar    
  27 C27           -3.5862     2.2468    -0.7170 C.ar    
  28 C28           -2.3824     1.5613    -0.7119 C.ar    
  29 C29           -5.0689     3.9169    -0.2266 C.2     
  30 C30           -5.6545     2.9917    -1.0024 C.2     
  31 O31           -4.7838     2.0104    -1.2908 O.3     
  32 C32           -2.7628    -5.5485     7.1808 C.ar    
  33 C33           -3.5961    -6.6440     7.3062 C.ar    
  34 C34           -4.9554    -6.5065     7.0944 C.ar    
  35 C35           -5.4811    -5.2733     6.7578 C.ar    
  36 C36           -4.6476    -4.1772     6.6333 C.ar    
  37 C37           -3.2893    -4.3139     6.8492 C.ar    
  38 S38           -6.0176    -7.9033     7.2531 S.o2    
  39 C39           -6.5185    -7.8953     8.9966 C.3     
  40 C40           -7.4547    -9.0756     9.2637 C.3     
  41 O41           -7.1241    -7.5992     6.4150 O.2     
  42 O42           -5.1765    -9.0159     6.9811 O.2     
  43 H43            1.1787    -1.4519    -0.9631 H       
  44 H44            2.0792    -0.0761    -0.2715 H       
  45 H45           -2.0472    -0.1227     0.4891 H       
  46 H46           -1.5268    -1.1780    -0.8454 H       
  47 H47            2.2478    -2.2762     1.0226 H       
  48 H48            1.7394    -0.8625     1.9706 H       
  49 H49           -3.1524    -2.3095     1.1616 H       
  50 H50           -0.8572    -4.0320     5.4920 H       
  51 H51           -1.0582    -6.9401     5.6653 H       
  52 H52            2.1829    -7.4457     7.3052 H       
  53 H53           -1.1050    -6.4927     8.1370 H       
  54 H54           -0.8762    -4.7613     7.7932 H       
  55 H55           -0.5705     3.6779     1.2377 H       
  56 H56           -2.6847     4.8994     1.2286 H       
  57 H57           -2.2870     0.6288    -1.2482 H       
  58 H58           -5.5212     4.8171     0.1627 H       
  59 H59           -6.6779     3.0305    -1.3454 H       
  60 H60           -3.1854    -7.6076     7.5692 H       
  61 H61           -6.5428    -5.1660     6.5917 H       
  62 H62           -5.0583    -3.2137     6.3700 H       
  63 H63           -2.6383    -3.4577     6.7520 H       
  64 H64           -5.6349    -7.9820     9.6289 H       
  65 H65           -7.0362    -6.9628     9.2216 H       
  66 H66           -8.3383    -8.9889     8.6314 H       
  67 H67           -6.9370   -10.0081     9.0387 H       
  68 H68           -7.7557    -9.0708    10.3113 H       
@<TRIPOS>BOND
   1    1    2 am
   2    1    3 2
   3    1   23 1
   4    2    4 1
   5    2    5 1
   6    4    8 1
   7    4   43 1
   8    4   44 1
   9    5    6 1
  10    5   45 1
  11    5   46 1
  12    6    7 ar
  13    6    9 ar
  14    7    8 1
  15    7   12 ar
  16    8   47 1
  17    8   48 1
  18    9   10 ar
  19    9   49 1
  20   10   11 ar
  21   10   14 1
  22   11   12 ar
  23   11   15 1
  24   12   13 1
  25   15   16 am
  26   15   17 2
  27   16   18 1
  28   16   50 1
  29   18   19 1
  30   18   22 1
  31   18   51 1
  32   19   20 1
  33   19   21 2
  34   20   52 1
  35   22   32 1
  36   22   53 1
  37   22   54 1
  38   23   24 ar
  39   23   28 ar
  40   24   25 ar
  41   24   55 1
  42   25   26 ar
  43   25   56 1
  44   26   27 ar
  45   26   29 1
  46   27   28 ar
  47   27   31 1
  48   28   57 1
  49   29   30 2
  50   29   58 1
  51   30   31 1
  52   30   59 1
  53   32   33 ar
  54   32   37 ar
  55   33   34 ar
  56   33   60 1
  57   34   35 ar
  58   34   38 1
  59   35   36 ar
  60   35   61 1
  61   36   37 ar
  62   36   62 1
  63   37   63 1
  64   38   39 1
  65   38   41 2
  66   38   42 2
  67   39   40 1
  68   39   64 1
  69   39   65 1
  70   40   66 1
  71   40   67 1
  72   40   68 1

#	End of record

