#	Name: ASD01209134
#	Creating user name:	WinNT
#	Creation time:	15. 06. 2019 19:11

#	Modifying user name:	WinNT
#	Modification time:	15. 06. 2019 19:11

#	Program:	/corina/corina34_cracker 3.40 0067  02.08.2006

@<TRIPOS>MOLECULE
ASD01209134
  27   27    0    0    0
SMALL
NO_CHARGES


@<TRIPOS>ATOM
   1 C1            -0.0155     1.2927     0.0091 C.2     
   2 P2            -3.9633    -0.3088     0.0397 P.3     
   3 O3            -4.2842    -1.0063    -1.2255 O.2     
   4 O4            -4.9008     0.9916     0.1884 O.3     
   5 O5            -4.2221    -1.3016     1.2805 O.3     
   6 C6            -6.3273     0.9338     0.1274 C.3     
   7 C7            -6.9028     2.3403     0.3044 C.3     
   8 C8            -5.4716    -1.9579     1.5045 C.3     
   9 C9            -5.3750    -2.8226     2.7631 C.3     
  10 N10            0.0021    -0.0041     0.0020 N.2     
  11 C11           -1.1683    -0.6171     0.0104 C.2     
  12 C12           -2.2220     0.1996     0.0252 C.2     
  13 S13           -1.6287     1.8583     0.0350 S.3     
  14 N14            1.1097     2.1021     0.0028 N.pl3   
  15 H15           -6.6338     0.5348    -0.8396 H       
  16 H16           -6.6989     0.2865     0.9218 H       
  17 H17           -6.5312     2.9875    -0.4900 H       
  18 H18           -7.9909     2.2962     0.2579 H       
  19 H19           -6.5963     2.7393     1.2713 H       
  20 H20           -6.2555    -1.2120     1.6354 H       
  21 H21           -5.7095    -2.5885     0.6479 H       
  22 H22           -6.3280    -3.3232     2.9340 H       
  23 H23           -4.5911    -3.5685     2.6321 H       
  24 H24           -5.1371    -2.1920     3.6197 H       
  25 H25           -1.2636    -1.6929     0.0052 H       
  26 H26            1.9939     1.7034    -0.0082 H       
  27 H27            1.0129     3.0672     0.0092 H       
@<TRIPOS>BOND
   1    1   10 2
   2    1   14 1
   3    1   13 1
   4    2    3 2
   5    2    4 1
   6    2    5 1
   7    2   12 1
   8    4    6 1
   9    5    8 1
  10    6    7 1
  11    6   15 1
  12    6   16 1
  13    7   17 1
  14    7   18 1
  15    7   19 1
  16    8    9 1
  17    8   20 1
  18    8   21 1
  19    9   22 1
  20    9   23 1
  21    9   24 1
  22   10   11 1
  23   11   12 2
  24   11   25 1
  25   12   13 1
  26   14   26 1
  27   14   27 1

#	End of record

