#	Name: ASD01330008
#	Creating user name:	WinNT
#	Creation time:	15. 06. 2019 19:16

#	Modifying user name:	WinNT
#	Modification time:	15. 06. 2019 19:16

#	Program:	/corina/corina34_cracker 3.40 0067  02.08.2006

@<TRIPOS>MOLECULE
ASD01330008
  12   11    0    0    0
SMALL
NO_CHARGES


@<TRIPOS>ATOM
   1 C1            -0.0184     1.5028     0.0103 C.2     
   2 C2             0.0021    -0.0041     0.0020 C.3     
   3 O3             1.3494    -0.4614    -0.1307 O.3     
   4 C4            -0.5881    -0.5293     1.3123 C.3     
   5 O5             1.0197     2.1211     0.0037 O.2     
   6 O6            -1.1898     2.1580     0.0194 O.3     
   7 H7            -0.5904    -0.3709    -0.8362 H       
   8 H8             1.9350    -0.1721     0.5823 H       
   9 H9            -1.6158    -0.1805     1.4135 H       
  10 H10           -0.5733    -1.6192     1.3063 H       
  11 H11            0.0044    -0.1625     2.1504 H       
  12 H12           -1.1523     3.1243     0.0245 H       
@<TRIPOS>BOND
   1    1    2 1
   2    1    5 2
   3    1    6 1
   4    2    3 1
   5    2    4 1
   6    2    7 1
   7    3    8 1
   8    4    9 1
   9    4   10 1
  10    4   11 1
  11    6   12 1

#	End of record

