#	Name: ASD08830213
#	Creating user name:	WinNT
#	Creation time:	15. 06. 2019 21:20

#	Modifying user name:	WinNT
#	Modification time:	15. 06. 2019 21:20

#	Program:	/corina/corina34_cracker 3.40 0067  02.08.2006

@<TRIPOS>MOLECULE
ASD08830213
  42   43    0    0    0
SMALL
NO_CHARGES


@<TRIPOS>ATOM
   1 C1            -0.0179     1.4659     0.0101 C.ar    
   2 C2             0.0021    -0.0041     0.0020 C.2     
   3 C3            -1.2926    -0.7753     0.0102 C.3     
   4 C4            -1.0677    -2.1561    -0.6090 C.3     
   5 N5            -2.3518    -2.8623    -0.7107 N.3     
   6 O6             1.0604    -0.5961    -0.0113 O.2     
   7 C7            -1.2373     2.1521     0.0313 C.ar    
   8 C8            -3.2444    -2.1969    -1.6708 C.3     
   9 C9             1.1826     2.1851     0.0025 C.ar    
  10 C10            1.1569     3.5623     0.0106 C.ar    
  11 C11           -0.0554     4.2363     0.0268 C.ar    
  12 C12           -1.2490     3.5295     0.0392 C.ar    
  13 F13           -0.0737     5.5872     0.0356 F       
  14 C14           -2.1504    -4.2717    -1.0770 C.3     
  15 C15           -3.5059    -4.9826    -1.1133 C.3     
  16 O16           -4.3703    -4.3036    -2.0283 O.3     
  17 C17           -4.5888    -2.9286    -1.7012 C.3     
  18 C18           -1.7814    -0.9359     1.4511 C.3     
  19 C19           -2.1251     0.4383     2.0293 C.3     
  20 C20           -2.6139     0.2776     3.4702 C.3     
  21 H21           -2.0411    -0.2348    -0.5692 H       
  22 H22           -0.6358    -2.0425    -1.6033 H       
  23 H23           -0.3864    -2.7296     0.0196 H       
  24 H24           -2.1672     1.6029     0.0410 H       
  25 H25           -3.4000    -1.1620    -1.3662 H       
  26 H26           -2.7943    -2.2211    -2.6633 H       
  27 H27            2.1271     1.6615    -0.0093 H       
  28 H28            2.0826     4.1185     0.0048 H       
  29 H29           -2.1894     4.0603     0.0514 H       
  30 H30           -1.6829    -4.3291    -2.0599 H       
  31 H31           -1.5076    -4.7514    -0.3389 H       
  32 H32           -3.3676    -6.0133    -1.4399 H       
  33 H33           -3.9492    -4.9720    -0.1176 H       
  34 H34           -5.0637    -2.8583    -0.7226 H       
  35 H35           -5.2338    -2.4738    -2.4530 H       
  36 H36           -2.6690    -1.5685     1.4653 H       
  37 H37           -0.9971    -1.3969     2.0516 H       
  38 H38           -1.2375     1.0708     2.0151 H       
  39 H39           -2.9094     0.8992     1.4289 H       
  40 H40           -2.8588     1.2566     3.8821 H       
  41 H41           -3.5015    -0.3549     3.4844 H       
  42 H42           -1.8296    -0.1834     4.0707 H       
@<TRIPOS>BOND
   1    1    2 1
   2    1    9 ar
   3    1    7 ar
   4    2    3 1
   5    2    6 2
   6    3    4 1
   7    3   18 1
   8    3   21 1
   9    4    5 1
  10    4   22 1
  11    4   23 1
  12    5   14 1
  13    5    8 1
  14    7   12 ar
  15    7   24 1
  16    8   17 1
  17    8   25 1
  18    8   26 1
  19    9   10 ar
  20    9   27 1
  21   10   11 ar
  22   10   28 1
  23   11   12 ar
  24   11   13 1
  25   12   29 1
  26   14   15 1
  27   14   30 1
  28   14   31 1
  29   15   16 1
  30   15   32 1
  31   15   33 1
  32   16   17 1
  33   17   34 1
  34   17   35 1
  35   18   19 1
  36   18   36 1
  37   18   37 1
  38   19   20 1
  39   19   38 1
  40   19   39 1
  41   20   40 1
  42   20   41 1
  43   20   42 1

#	End of record

