#	Name: ASD05503053
#	Creating user name:	WinNT
#	Creation time:	15. 06. 2019 21:01

#	Modifying user name:	WinNT
#	Modification time:	15. 06. 2019 21:01

#	Program:	/corina/corina34_cracker 3.40 0067  02.08.2006

@<TRIPOS>MOLECULE
ASD05503053
  39   40    0    0    0
SMALL
NO_CHARGES


@<TRIPOS>ATOM
   1 C1            -0.0210     1.3838     0.0247 C.ar    
   2 C2             0.0142     0.0055     0.2423 C.ar    
   3 C3             1.2355    -0.6682     0.2218 C.ar    
   4 C4             2.4060     0.0356    -0.0145 C.ar    
   5 C5             2.3603     1.4081    -0.2301 C.ar    
   6 C6             1.1502     2.0755    -0.2098 C.ar    
   7 C7            -1.2389    -0.7379     0.4942 C.2     
   8 N8            -2.4176    -0.0847     0.5139 N.am    
   9 C9            -3.6591    -0.8212     0.7634 C.3     
  10 C10           -4.8423     0.1484     0.7328 C.3     
  11 N11            3.6333    -0.6351    -0.0356 N.am    
  12 C12            3.7101    -1.8842    -0.5359 C.2     
  13 C13            5.0219    -2.5535    -0.6536 C.ar    
  14 O14            2.6999    -2.4602    -0.8903 O.2     
  15 C15            6.1841    -1.8951    -0.2477 C.ar    
  16 C16            7.4057    -2.5256    -0.3603 C.ar    
  17 C17            7.4820    -3.8080    -0.8748 C.ar    
  18 C18            6.3354    -4.4672    -1.2798 C.ar    
  19 C19            5.1047    -3.8508    -1.1666 C.ar    
  20 Cl20           3.6663    -4.6791    -1.6752 Cl      
  21 C21           -6.1389    -0.6208     0.9934 C.3     
  22 O22           -1.2059    -1.9381     0.6834 O.2     
  23 H23           -0.9650     1.9082     0.0353 H       
  24 H24            1.2689    -1.7345     0.3899 H       
  25 H25            3.2734     1.9548    -0.4140 H       
  26 H26            1.1209     3.1420    -0.3776 H       
  27 H27           -2.4439     0.8732     0.3628 H       
  28 H28           -3.7920    -1.5809    -0.0068 H       
  29 H29           -3.6072    -1.3002     1.7411 H       
  30 H30           -4.7095     0.9081     1.5030 H       
  31 H31           -4.8943     0.6274    -0.2449 H       
  32 H32            4.4292    -0.2013     0.3099 H       
  33 H33            6.1268    -0.8940     0.1535 H       
  34 H34            8.3052    -2.0170    -0.0465 H       
  35 H35            8.4414    -4.2963    -0.9609 H       
  36 H36            6.4022    -5.4678    -1.6808 H       
  37 H37           -6.9818     0.0699     0.9716 H       
  38 H38           -6.2718    -1.3806     0.2232 H       
  39 H39           -6.0870    -1.0998     1.9711 H       
@<TRIPOS>BOND
   1    1    2 ar
   2    1    6 ar
   3    1   23 1
   4    2    3 ar
   5    2    7 1
   6    3    4 ar
   7    3   24 1
   8    4    5 ar
   9    4   11 1
  10    5    6 ar
  11    5   25 1
  12    6   26 1
  13    7    8 am
  14    7   22 2
  15    8    9 1
  16    8   27 1
  17    9   10 1
  18    9   28 1
  19    9   29 1
  20   10   21 1
  21   10   30 1
  22   10   31 1
  23   11   12 am
  24   11   32 1
  25   12   13 1
  26   12   14 2
  27   13   15 ar
  28   13   19 ar
  29   15   16 ar
  30   15   33 1
  31   16   17 ar
  32   16   34 1
  33   17   18 ar
  34   17   35 1
  35   18   19 ar
  36   18   36 1
  37   19   20 1
  38   21   37 1
  39   21   38 1
  40   21   39 1

#	End of record

