#	Name: ASD01884951
#	Creating user name:	WinNT
#	Creation time:	15. 06. 2019 19:49

#	Modifying user name:	WinNT
#	Modification time:	15. 06. 2019 19:49

#	Program:	/corina/corina34_cracker 3.40 0067  02.08.2006

@<TRIPOS>MOLECULE
ASD01884951
  47   50    0    0    0
SMALL
NO_CHARGES


@<TRIPOS>ATOM
   1 C1             0.0401     1.4371    -0.2845 C.ar    
   2 C2             0.1470     0.1527    -0.7778 C.ar    
   3 C3            -0.9317    -0.4277    -1.4462 C.ar    
   4 C4            -2.1142     0.2927    -1.6133 C.ar    
   5 C5            -2.2149     1.5760    -1.1181 C.ar    
   6 C6            -1.1432     2.1498    -0.4485 C.ar    
   7 C7            -0.8210    -1.8059    -1.9776 C.2     
   8 C8            -1.6114    -2.8160    -1.4645 C.2     
   9 C9             0.0931    -2.0985    -3.0212 C.2     
  10 C10            0.1935    -3.3496    -3.5041 C.2     
  11 N11           -0.5804    -4.3587    -3.0001 N.pl3   
  12 C12           -1.4844    -4.1146    -1.9885 C.2     
  13 C13           -0.6922    -5.6869    -3.2843 C.2     
  14 N14           -1.6031    -6.1849    -2.4820 N.2     
  15 N15           -2.0752    -5.2653    -1.7161 N.2     
  16 O16            0.0094    -6.3690    -4.2247 O.3     
  17 O17           -1.2461     3.4145     0.0380 O.3     
  18 C18           -2.4478     4.0381    -0.0574 C.ar    
  19 F19            1.0834     2.0007     0.3629 F       
  20 C20           -0.2682    -7.7646    -4.3558 C.3     
  21 C21           -3.4006     3.9105     0.9503 C.ar    
  22 C22           -4.6103     4.5607     0.8160 C.ar    
  23 N23           -4.8685     5.2952    -0.2493 N.ar    
  24 C24           -3.9915     5.4403    -1.2249 C.ar    
  25 C25           -2.7575     4.8269    -1.1632 C.ar    
  26 C26            0.6125    -8.3586    -5.4569 C.3     
  27 C27           -4.3405     6.2915    -2.4185 C.3     
  28 C28           -2.5950    -2.5304    -0.3590 C.3     
  29 F29           -3.8567    -2.2820    -0.9099 F       
  30 F30           -2.6689    -3.6350     0.4964 F       
  31 F31           -2.1724    -1.4090     0.3630 F       
  32 H32            1.0641    -0.4024    -0.6470 H       
  33 H33           -2.9505    -0.1540    -2.1306 H       
  34 H34           -3.1305     2.1338    -1.2479 H       
  35 H35            0.7111    -1.3130    -3.4304 H       
  36 H36            0.8932    -3.5601    -4.2994 H       
  37 H37           -0.0578    -8.2672    -3.4117 H       
  38 H38           -1.3177    -7.9036    -4.6154 H       
  39 H39           -3.1957     3.3105     1.8247 H       
  40 H40           -5.3551     4.4670     1.5925 H       
  41 H41           -2.0443     4.9500    -1.9648 H       
  42 H42            0.4022    -7.8560    -6.4010 H       
  43 H43            1.6620    -8.2197    -5.1973 H       
  44 H44            0.4008    -9.4231    -5.5569 H       
  45 H45           -4.0341     7.3209    -2.2327 H       
  46 H46           -3.8228     5.9117    -3.2994 H       
  47 H47           -5.4169     6.2575    -2.5868 H       
@<TRIPOS>BOND
   1    1    2 ar
   2    1   19 1
   3    1    6 ar
   4    2    3 ar
   5    2   32 1
   6    3    4 ar
   7    3    7 1
   8    4    5 ar
   9    4   33 1
  10    5    6 ar
  11    5   34 1
  12    6   17 1
  13    7    8 2
  14    7    9 1
  15    8   28 1
  16    8   12 1
  17    9   10 2
  18    9   35 1
  19   10   11 1
  20   10   36 1
  21   11   12 1
  22   11   13 1
  23   12   15 2
  24   13   14 2
  25   13   16 1
  26   14   15 1
  27   16   20 1
  28   17   18 1
  29   18   21 ar
  30   18   25 ar
  31   20   26 1
  32   20   37 1
  33   20   38 1
  34   21   22 ar
  35   21   39 1
  36   22   23 ar
  37   22   40 1
  38   23   24 ar
  39   24   25 ar
  40   24   27 1
  41   25   41 1
  42   26   42 1
  43   26   43 1
  44   26   44 1
  45   27   45 1
  46   27   46 1
  47   27   47 1
  48   28   29 1
  49   28   30 1
  50   28   31 1

#	End of record

