#	Name: ASD04550044
#	Creating user name:	WinNT
#	Creation time:	15. 06. 2019 20:49

#	Modifying user name:	WinNT
#	Modification time:	15. 06. 2019 20:49

#	Program:	/corina/corina34_cracker 3.40 0067  02.08.2006

@<TRIPOS>MOLECULE
ASD04550044
  32   33    0    0    0
SMALL
NO_CHARGES


@<TRIPOS>ATOM
   1 C1            -0.0169     1.3845    -0.0054 C.ar    
   2 C2             0.0021    -0.0041     0.0020 C.ar    
   3 C3             1.2157    -0.6790     0.0018 C.ar    
   4 C4             2.3997     0.0321    -0.0057 C.ar    
   5 C5             2.3774     1.4148    -0.0126 C.ar    
   6 C6             1.1706     2.0898    -0.0129 C.ar    
   7 C7             3.6712     2.1875    -0.0198 C.3     
   8 C8             3.7360     3.0620    -1.2736 C.3     
   9 N9            -1.1992    -0.7216     0.0101 N.am    
  10 C10           -2.4162    -0.1619     0.1219 C.2     
  11 C11           -3.4848    -1.2326     0.1044 C.3     
  12 C12           -2.7132    -2.5431     0.3842 C.3     
  13 C13           -1.2926    -2.1814    -0.1087 C.3     
  14 O14           -2.6269     1.0283     0.2226 O.2     
  15 C15            3.7413     3.0612     1.2061 C.2     
  16 O16            2.8338     3.0568     2.0038 O.2     
  17 O17            4.8119     3.8443     1.4119 O.3     
  18 H18           -0.9591     1.9123    -0.0098 H       
  19 H19            1.2338    -1.7588     0.0079 H       
  20 H20            3.3439    -0.4922    -0.0058 H       
  21 H21            1.1565     3.1697    -0.0186 H       
  22 H22            4.5101     1.4916    -0.0184 H       
  23 H23            3.6853     2.4301    -2.1603 H       
  24 H24            2.8970     3.7579    -1.2750 H       
  25 H25            4.6717     3.6209    -1.2788 H       
  26 H26           -4.2214    -1.0492     0.8867 H       
  27 H27           -3.9667    -1.2747    -0.8723 H       
  28 H28           -2.7134    -2.7762     1.4490 H       
  29 H29           -3.1254    -3.3696    -0.1946 H       
  30 H30           -1.1631    -2.4906    -1.1459 H       
  31 H31           -0.5419    -2.6556     0.5235 H       
  32 H32            4.8116     4.3870     2.2122 H       
@<TRIPOS>BOND
   1    1    2 ar
   2    1    6 ar
   3    1   18 1
   4    2    3 ar
   5    2    9 1
   6    3    4 ar
   7    3   19 1
   8    4    5 ar
   9    4   20 1
  10    5    6 ar
  11    5    7 1
  12    6   21 1
  13    7    8 1
  14    7   15 1
  15    7   22 1
  16    8   23 1
  17    8   24 1
  18    8   25 1
  19    9   10 am
  20    9   13 1
  21   10   11 1
  22   10   14 2
  23   11   12 1
  24   11   26 1
  25   11   27 1
  26   12   13 1
  27   12   28 1
  28   12   29 1
  29   13   30 1
  30   13   31 1
  31   15   16 2
  32   15   17 1
  33   17   32 1

#	End of record

