#	Name: ASD04910081
#	Creating user name:	WinNT
#	Creation time:	15. 06. 2019 20:55

#	Modifying user name:	WinNT
#	Modification time:	15. 06. 2019 20:55

#	Program:	/corina/corina34_cracker 3.40 0067  02.08.2006

@<TRIPOS>MOLECULE
ASD04910081
  30   32    0    0    0
SMALL
NO_CHARGES


@<TRIPOS>ATOM
   1 C1            -0.0168     1.3842     0.0097 C.ar    
   2 C2             0.0021    -0.0041     0.0020 C.ar    
   3 C3             1.2282    -0.6661    -0.0133 C.ar    
   4 C4             2.3858     0.0918    -0.0203 C.ar    
   5 C5             2.2884     1.4775    -0.0119 C.ar    
   6 N6             1.1071     2.0733     0.0026 N.ar    
   7 N7            -1.1939    -0.7286     0.0101 N.pl3   
   8 N8             3.4534     2.2525    -0.0190 N.pl3   
   9 N9             4.7652     1.7632    -0.0346 N.2     
  10 C10            5.5877     2.7788    -0.0369 C.2     
  11 C11            4.8233     3.9626    -0.0226 C.2     
  12 C12            3.5072     3.6028    -0.0176 C.2     
  13 C13            5.3536     5.3492    -0.0199 C.ar    
  14 C14            6.7287     5.5717    -0.0326 C.ar    
  15 C15            7.2165     6.8629    -0.0305 C.ar    
  16 C16            6.3425     7.9349    -0.0157 C.ar    
  17 C17            4.9762     7.7196    -0.0030 C.ar    
  18 C18            4.4778     6.4325    -0.0104 C.ar    
  19 H19           -0.9626     1.9054     0.0170 H       
  20 H20            1.2738    -1.7451    -0.0192 H       
  21 H21            3.3533    -0.3881    -0.0318 H       
  22 H22           -2.0439    -0.2614     0.0210 H       
  23 H23           -1.1735    -1.6984     0.0046 H       
  24 H24            6.6661     2.7209    -0.0475 H       
  25 H25            2.6620     4.2751    -0.0110 H       
  26 H26            7.4120     4.7354    -0.0438 H       
  27 H27            8.2824     7.0365    -0.0400 H       
  28 H28            6.7283     8.9436    -0.0138 H       
  29 H29            4.2982     8.5602     0.0085 H       
  30 H30            3.4108     6.2656    -0.0050 H       
@<TRIPOS>BOND
   1    1    2 ar
   2    1    6 ar
   3    1   19 1
   4    2    3 ar
   5    2    7 1
   6    3    4 ar
   7    3   20 1
   8    4    5 ar
   9    4   21 1
  10    5    6 ar
  11    5    8 1
  12    7   22 1
  13    7   23 1
  14    8    9 1
  15    8   12 1
  16    9   10 2
  17   10   11 1
  18   10   24 1
  19   11   12 2
  20   11   13 1
  21   12   25 1
  22   13   14 ar
  23   13   18 ar
  24   14   15 ar
  25   14   26 1
  26   15   16 ar
  27   15   27 1
  28   16   17 ar
  29   16   28 1
  30   17   18 ar
  31   17   29 1
  32   18   30 1

#	End of record

