#	Name: ASD06610074
#	Creating user name:	WinNT
#	Creation time:	15. 06. 2019 21:07

#	Modifying user name:	WinNT
#	Modification time:	15. 06. 2019 21:07

#	Program:	/corina/corina34_cracker 3.40 0067  02.08.2006

@<TRIPOS>MOLECULE
ASD06610074
 578  579    0    0    0
SMALL
NO_CHARGES


@<TRIPOS>ATOM
   1 C1           -10.0370    13.3794   -17.1346 C.2     
   2 O2            -9.7147    13.0348   -16.0174 O.2     
   3 N3            -7.6530    13.5005   -17.5714 N.am    
   4 C4            -8.9799    13.6518   -18.1736 C.3     
   5 C5            -9.1321    12.6598   -19.3283 C.3     
   6 C6            -8.8004    11.2495   -18.8362 C.3     
   7 C7            -9.8573    10.8005   -17.8252 C.3     
   8 C8            -8.1759    13.0432   -20.4595 C.3     
   9 C9           -13.6439    12.7888   -17.2032 C.2     
  10 O10          -13.6869    12.8475   -18.4139 O.2     
  11 N11          -11.3409    13.5132   -17.4487 N.am    
  12 C12          -12.3707    13.1380   -16.4766 C.3     
  13 C13          -12.6295    14.3113   -15.5293 C.3     
  14 C14          -17.1491    12.2839   -16.2965 C.2     
  15 O15          -16.9711    12.6798   -15.1640 O.2     
  16 N16          -14.7349    12.4112   -16.5078 N.am    
  17 C17          -15.9726    12.0717   -17.2141 C.3     
  18 C18          -15.9247    10.6063   -17.6514 C.3     
  19 C19          -14.8072    10.4170   -18.6791 C.3     
  20 C20          -14.7601     8.9736   -19.1099 C.2     
  21 O21          -15.5432     8.1750   -18.6410 O.2     
  22 N22          -13.8477     8.5703   -20.0161 N.am    
  23 C23          -20.6866    11.3628   -16.2813 C.2     
  24 O24          -20.5592    10.6368   -17.2443 O.2     
  25 N25          -18.3989    12.0338   -16.7344 N.am    
  26 C26          -19.5426    12.2401   -15.8424 C.3     
  27 C27          -19.9743    13.7069   -15.8976 C.3     
  28 C28          -18.7778    14.6033   -15.5727 C.3     
  29 O29          -20.4567    14.0125   -17.2075 O.3     
  30 C30          -24.2651    11.1365   -15.5698 C.2     
  31 O31          -24.2639    12.1769   -14.9466 O.2     
  32 N32          -21.8514    11.3851   -15.6035 N.am    
  33 C33          -22.9636    10.5323   -16.0302 C.3     
  34 C34          -22.8027     9.1397   -15.4173 C.3     
  35 C35          -22.8017     9.2511   -13.8913 C.3     
  36 C36          -22.7663     7.8500   -13.2777 C.3     
  37 C37          -21.4812     8.5264   -15.8847 C.3     
  38 C38          -27.7345    10.0237   -15.2723 C.2     
  39 O39          -27.4462     8.8737   -15.5279 O.2     
  40 N40          -25.4306    10.5205   -15.8505 N.am    
  41 C41          -26.6959    11.1078   -15.4029 C.3     
  42 C42          -27.1666    12.1446   -16.4249 C.3     
  43 C43          -31.2950     9.8823   -14.2840 C.2     
  44 O44          -31.3717    11.0757   -14.0819 O.2     
  45 N45          -28.9837    10.3321   -14.8714 N.am    
  46 C46          -29.9934     9.2782   -14.7444 C.3     
  47 C47          -34.4589     8.6337   -12.9449 C.2     
  48 O48          -34.0287     7.5058   -12.8282 O.2     
  49 N49          -32.3738     9.0965   -14.0969 N.am    
  50 C50          -33.6391     9.6837   -13.6493 C.3     
  51 C51          -34.4140    10.2088   -14.8596 C.3     
  52 C52          -33.6496    11.3431   -15.4920 C.2     
  53 C53          -33.2686    11.4188   -16.7815 C.2     
  54 N54          -32.6051    12.6069   -16.9293 N.pl3   
  55 C55          -32.6037    13.2163   -15.7241 C.2     
  56 N56          -33.2345    12.4569   -14.8706 N.2     
  57 C57          -37.9274     8.2906   -11.8426 C.2     
  58 O58          -38.2687     9.3027   -12.4172 O.2     
  59 N59          -35.6703     8.9480   -12.4445 N.am    
  60 C60          -36.4673     7.9271   -11.7597 C.3     
  61 C61          -36.0436     7.8494   -10.2916 C.3     
  62 C62          -34.6185     7.3671   -10.2048 C.ar    
  63 C63          -33.5787     8.2779   -10.2166 C.ar    
  64 C64          -32.2715     7.8355   -10.1370 C.ar    
  65 C65          -32.0041     6.4823   -10.0454 C.ar    
  66 C66          -33.0439     5.5716   -10.0327 C.ar    
  67 C67          -34.3513     6.0143   -10.1079 C.ar    
  68 C68          -41.0147     7.2115   -10.2095 C.2     
  69 O69          -40.4162     6.5322    -9.4024 O.2     
  70 N70          -38.8540     7.4910   -11.2783 N.am    
  71 C71          -40.2735     7.8443   -11.3589 C.3     
  72 C72          -40.8515     7.3350   -12.6807 C.3     
  73 C73          -40.1848     8.0694   -13.8456 C.3     
  74 C74          -40.7629     7.5601   -15.1675 C.3     
  75 N75          -40.1245     8.2634   -16.2829 N.pl3   
  76 C76          -40.4855     7.9709   -17.5768 C.2     
  77 N77          -41.3958     7.0679   -17.8112 N.2     
  78 N78          -39.8865     8.6309   -18.6235 N.pl3   
  79 C79          -44.5122     6.6069    -9.3349 C.2     
  80 O80          -44.9044     6.9591   -10.4272 O.2     
  81 N81          -42.3427     7.4004   -10.0783 N.am    
  82 C82          -43.0633     6.7852    -8.9610 C.3     
  83 C83          -42.9616     7.6878    -7.7298 C.3     
  84 C84          -41.5029     7.7683    -7.2754 C.3     
  85 C85          -41.4012     8.6709    -6.0443 C.3     
  86 C86          -39.9425     8.7514    -5.5899 C.3     
  87 N87          -39.8449     9.6181    -4.4078 N.3     
  88 C88          -47.6217     5.8485    -7.5688 C.2     
  89 O89          -47.0962     5.9581    -6.4813 O.2     
  90 N90          -45.3723     6.0562    -8.4555 N.am    
  91 C91          -46.7809     5.8829    -8.8190 C.3     
  92 C92          -46.9521     4.5695    -9.5850 C.3     
  93 C93          -46.1983     4.6522   -10.9138 C.3     
  94 C94          -46.3669     3.3586   -11.6683 C.2     
  95 O95          -47.0227     2.4625   -11.1920 O.2     
  96 O96          -45.7886     3.2019   -12.8694 O.3     
  97 C97          -51.0486     4.9040    -6.7158 C.2     
  98 O98          -51.2531     4.4371    -7.8163 O.2     
  99 N99          -48.9578     5.6962    -7.6593 N.am    
 100 C100         -49.7752     5.6628    -6.4440 C.3     
 101 C101         -50.1145     7.0926    -6.0182 C.3     
 102 C102         -48.8309     7.8252    -5.6227 C.3     
 103 C103         -49.1702     9.2550    -5.1969 C.3     
 104 N104         -47.9411     9.9565    -4.8181 N.pl3   
 105 C105         -47.9976    11.2642    -4.3977 C.2     
 106 N106         -46.9041    11.8883    -4.0607 N.2     
 107 N107         -49.2076    11.9137    -4.3328 N.pl3   
 108 C108         -54.3393     4.7862    -5.2600 C.2     
 109 O109         -54.0698     5.6847    -4.4913 O.2     
 110 N110         -51.9601     4.7443    -5.7359 N.am    
 111 C111         -53.2408     4.0947    -6.0257 C.3     
 112 C112         -53.1737     2.6250    -5.6059 C.3     
 113 C113         -52.7279     2.5316    -4.1452 C.3     
 114 C114         -53.8319     3.0801    -3.2390 C.3     
 115 C115         -52.1701     1.8863    -6.4936 C.3     
 116 C116         -57.8461     4.0634    -4.5231 C.2     
 117 O117         -57.7997     2.9878    -5.0815 O.2     
 118 N118         -55.6212     4.4060    -5.4295 N.am    
 119 C119         -56.6785     5.0116    -4.6160 C.3     
 120 C120         -57.1345     6.3202    -5.2643 C.3     
 121 C121         -55.9826     7.3271    -5.2456 C.3     
 122 C122         -56.4318     8.6161    -5.8842 C.2     
 123 O123         -57.5576     8.7189    -6.3105 O.2     
 124 O124         -55.5810     9.6500    -5.9794 O.3     
 125 C125         -61.1646     4.1119    -2.8925 C.2     
 126 O126         -61.0071     5.2169    -2.4182 O.2     
 127 N127         -58.9420     4.4107    -3.8196 N.am    
 128 C128         -60.0771     3.4890    -3.7293 C.3     
 129 C129         -64.2231     2.9609    -1.2543 C.2     
 130 O130         -63.9729     1.7961    -1.4814 O.2     
 131 N131         -62.3124     3.4409    -2.6712 N.am    
 132 C132         -63.3696     4.0465    -1.8577 C.3     
 133 C133         -64.2378     4.9475    -2.7382 C.3     
 134 C134         -63.3995     6.1204    -3.2507 C.3     
 135 C135         -64.2307     6.9521    -4.2295 C.3     
 136 C136         -62.9733     6.9965    -2.0710 C.3     
 137 C137         -67.4667     2.7760     0.4214 C.2     
 138 O138         -67.7263     3.9333     0.1681 O.2     
 139 N139         -65.2645     3.2844    -0.4622 N.am    
 140 C140         -66.0942     2.2291     0.1244 C.3     
 141 C141         -65.4501     1.7357     1.4215 C.3     
 142 C142         -64.1106     1.0679     1.1039 C.3     
 143 C143         -63.4665     0.5745     2.4010 C.3     
 144 N144         -62.1839    -0.0649     2.0969 N.pl3   
 145 C145         -61.4190    -0.5884     3.1122 C.2     
 146 N146         -61.8349    -0.5159     4.3454 N.2     
 147 N147         -60.2154    -1.1885     2.8268 N.pl3   
 148 C148         -70.3734     1.7050     2.3623 C.2     
 149 O149         -69.7698     0.7780     2.8596 O.2     
 150 N150         -68.4058     1.9790     0.9686 N.am    
 151 C151         -69.7400     2.5106     1.2574 C.3     
 152 C152         -70.6074     2.4222     0.0002 C.3     
 153 C153         -70.0321     3.3384    -1.0818 C.3     
 154 C154         -70.8994     3.2500    -2.3390 C.3     
 155 C155         -70.3241     4.1662    -3.4210 C.3     
 156 N156         -71.1569     4.0813    -4.6281 N.3     
 157 C157         -73.7267     1.3294     3.7685 C.2     
 158 O158         -74.2318     1.9885     2.8846 O.2     
 159 N159         -71.6107     2.0146     2.7979 N.am    
 160 C160         -72.2265     1.2314     3.8720 C.3     
 161 C161         -71.7719     1.7780     5.2268 C.3     
 162 C162         -70.2649     1.5648     5.3832 C.3     
 163 C163         -69.8104     2.1115     6.7380 C.3     
 164 N164         -68.3674     1.9073     6.8877 N.pl3   
 165 C165         -67.7298     2.3214     8.0332 C.2     
 166 N166         -68.4091     2.8956     8.9859 N.2     
 167 N167         -66.3757     2.1298     8.1737 N.pl3   
 168 C168         -76.5795     0.5359     5.9122 C.2     
 169 O169         -75.8688     0.3052     6.8675 O.2     
 170 N170         -74.5071     0.6845     4.6583 N.am    
 171 C171         -75.9655     0.7797     4.5577 C.3     
 172 C172         -76.4782    -0.2694     3.5690 C.3     
 173 C173         -75.9540     0.0512     2.1678 C.3     
 174 C174         -76.4666    -0.9980     1.1792 C.3     
 175 N175         -75.9647    -0.6910    -0.1625 N.pl3   
 176 C176         -76.2966    -1.5011    -1.2226 C.2     
 177 N177         -75.8500    -1.2280    -2.4163 N.2     
 178 N178         -77.0994    -2.5993    -1.0235 N.pl3   
 179 C179         -79.9242    -0.1695     7.2078 C.2     
 180 O180         -80.3845    -0.3178     6.0955 O.2     
 181 N181         -77.9184     0.5741     6.0620 N.am    
 182 C182         -78.5152     0.3370     7.3787 C.3     
 183 C183         -78.5362     1.6451     8.1721 C.3     
 184 C184         -77.1008     2.0942     8.4532 C.3     
 185 C185         -77.1218     3.4022     9.2466 C.3     
 186 N186         -75.7475     3.8322     9.5158 N.pl3   
 187 C187         -75.5148     4.9901    10.2196 C.2     
 188 N188         -76.5171     5.7052    10.6474 N.2     
 189 N189         -74.2251     5.3936    10.4722 N.pl3   
 190 C190         -82.8219    -0.5776     9.4115 C.2     
 191 O191         -82.2298    -0.5849    10.4699 O.2     
 192 N192         -80.6728    -0.4576     8.2908 N.am    
 193 C193         -82.0765    -0.8445     8.1292 C.3     
 194 C194         -82.1592    -2.3345     7.7919 C.3     
 195 C195         -83.6041    -2.6996     7.4456 C.3     
 196 C196         -84.0246    -1.9641     6.1716 C.3     
 197 C197         -83.7089    -4.2094     7.2211 C.3     
 198 C198         -86.3069    -0.3324    10.4874 C.2     
 199 O199         -86.7159    -0.8497     9.4695 O.2     
 200 N200         -84.1466    -0.3308     9.3820 N.am    
 201 C201         -84.8510     0.0355    10.6132 C.3     
 202 C202         -84.7239     1.5426    10.8444 C.3     
 203 C203         -83.2573     1.8981    11.0961 C.3     
 204 C204         -83.1119     3.4174    11.2034 C.3     
 205 C205         -82.7915     1.2479    12.4004 C.3     
 206 C206         -89.3896     0.4283    12.2989 C.2     
 207 O207         -88.8450     1.2665    12.9858 O.2     
 208 N208         -87.1546    -0.0867    11.5060 N.am    
 209 C209         -88.5700    -0.4443    11.3837 C.3     
 210 C210         -88.7606    -1.9118    11.7724 C.3     
 211 O211         -88.4456    -2.0829    13.1557 O.3     
 212 C212         -92.7103     0.4552    13.7423 C.2     
 213 O213         -92.8611    -0.7245    13.5047 O.2     
 214 N214         -90.7277     0.2773    12.3542 N.am    
 215 C215         -91.5361     1.1975    13.1580 C.3     
 216 C216         -92.0429     2.3377    12.2727 C.3     
 217 C217         -92.7625     1.7560    11.0542 C.3     
 218 C218         -94.0507     1.0642    11.5048 C.3     
 219 C219         -90.8586     3.1875    11.8079 C.3     
 220 C220         -95.9403     1.3825    15.0764 C.2     
 221 O221         -95.7710     2.5434    14.7690 O.2     
 222 N222         -93.5928     1.1024    14.5290 N.am    
 223 C223         -94.7911     0.4099    15.0093 C.3     
 224 C224         -94.5253    -0.1625    16.4030 C.3     
 225 C225         -94.0217     0.9507    17.3240 C.3     
 226 C226         -95.1475     1.9571    17.5705 C.3     
 227 C227         -93.4677    -1.2640    16.3088 C.3     
 228 C228         -99.2519     1.3901    16.6245 C.2     
 229 O229         -99.1792     0.2389    16.9992 O.2     
 230 N230         -97.1563     0.9622    15.4780 N.am    
 231 C231         -98.2492     1.9251    15.6348 C.3     
 232 C232         -98.9332     2.1447    14.2840 C.3     
 233 C233         -97.9538     2.8169    13.3197 C.3     
 234 C234         -99.3708     0.7962    13.7087 C.3     
 235 C235        -102.5085     2.4847    17.8733 C.2     
 236 O236        -102.4760     3.5490    17.2927 O.2     
 237 N237        -100.2294     2.1909    17.0932 N.am    
 238 C238        -101.2610     1.6458    17.9792 C.3     
 239 C239        -100.7551     1.6643    19.4230 C.3     
 240 C240         -99.5735     0.7022    19.5617 C.3     
 241 C241        -100.3052     3.0804    19.7877 C.3     
 242 C242        -104.7954     3.8443    19.6022 C.2     
 243 O243        -103.8666     3.7919    20.3733 O.2     
 244 N244        -103.6601     2.0522    18.4238 N.am    
 245 C245        -104.8444     2.9146    18.4172 C.3     
 246 C246        -106.1047     2.0509    18.4982 C.3     
 247 C247        -106.2193     1.1962    17.2345 C.3     
 248 C248        -107.4089     0.2434    17.3693 C.3     
 249 C249        -106.4287     2.1049    16.0214 C.3     
 250 O250        -105.7837     4.7306    19.8012 O.3     
 251 C251          -6.6407    14.3000   -17.9620 C.2     
 252 O252          -6.8036    15.0834   -18.8733 O.2     
 253 C253          10.9340    20.6902   -16.7432 C.3     
 254 C254           9.5792    20.7710   -17.4496 C.3     
 255 C255           8.6140    19.7660   -16.8179 C.3     
 256 C256           7.2592    19.8467   -17.5243 C.3     
 257 C257           6.2939    18.8417   -16.8926 C.3     
 258 C258           4.9392    18.9225   -17.5990 C.3     
 259 C259           3.9739    17.9174   -16.9673 C.3     
 260 C260           2.6191    17.9982   -17.6737 C.3     
 261 C261           1.6538    16.9932   -17.0420 C.3     
 262 C262           0.2991    17.0740   -17.7484 C.3     
 263 C263          -0.6662    16.0689   -17.1167 C.3     
 264 C264          -2.0209    16.1497   -17.8231 C.3     
 265 C265          -2.9862    15.1447   -17.1914 C.3     
 266 C266          -4.3410    15.2254   -17.8979 C.3     
 267 C267          -5.3063    14.2204   -17.2662 C.3     
 268 H268          -7.5030    12.8250   -16.8917 H       
 269 H269          -9.0942    14.6682   -18.5503 H       
 270 H270         -10.1580    12.6845   -19.6958 H       
 271 H271          -8.7917    10.5622   -19.6822 H       
 272 H272          -7.8200    11.2521   -18.3600 H       
 273 H273         -10.8511    11.0079   -18.2220 H       
 274 H274          -9.7547     9.7307   -17.6433 H       
 275 H275          -9.7190    11.3429   -16.8899 H       
 276 H276          -7.1466    12.9181   -20.1233 H       
 277 H277          -8.3571    12.4015   -21.3217 H       
 278 H278          -8.3427    14.0834   -20.7394 H       
 279 H279         -11.5974    13.8579   -18.3183 H       
 280 H280         -12.0316    12.2756   -15.9027 H       
 281 H281         -12.9685    15.1737   -16.1033 H       
 282 H282         -13.3957    14.0321   -14.8061 H       
 283 H283         -11.7086    14.5639   -15.0038 H       
 284 H284         -14.7005    12.3642   -15.5395 H       
 285 H285         -16.0767    12.7096   -18.0918 H       
 286 H286         -15.7318     9.9745   -16.7844 H       
 287 H287         -16.8797    10.3289   -18.0978 H       
 288 H288         -15.0001    11.0488   -19.5462 H       
 289 H289         -13.8523    10.6943   -18.2328 H       
 290 H290         -13.2213     9.2090   -20.3911 H       
 291 H291         -13.8173     7.6412   -20.2934 H       
 292 H292         -18.5412    11.7172   -17.6402 H       
 293 H293         -19.2584    11.9831   -14.8219 H       
 294 H294         -20.7665    13.8801   -15.1691 H       
 295 H295         -17.9856    14.4301   -16.3011 H       
 296 H296         -19.0854    15.6483   -15.6120 H       
 297 H297         -18.4099    14.3702   -14.5735 H       
 298 H298         -19.8031    13.8809   -17.9079 H       
 299 H299         -21.9533    11.9658   -14.8333 H       
 300 H300         -22.9643    10.4530   -17.1173 H       
 301 H301         -23.6301     8.5052   -15.7347 H       
 302 H302         -21.9242     9.8114   -13.5685 H       
 303 H303         -23.7036     9.7684   -13.5642 H       
 304 H304         -22.7656     7.9294   -12.1906 H       
 305 H305         -23.6438     7.2897   -13.6005 H       
 306 H306         -21.8643     7.3327   -13.6048 H       
 307 H307         -20.6537     9.1609   -15.5673 H       
 308 H308         -21.3666     7.5342   -15.4480 H       
 309 H309         -21.4819     8.4470   -16.9718 H       
 310 H310         -25.4316     9.6883   -16.3489 H       
 311 H311         -26.5507    11.5903   -14.4364 H       
 312 H312         -27.3118    11.6621   -17.3914 H       
 313 H313         -28.1081    12.5816   -16.0919 H       
 314 H314         -26.4154    12.9287   -16.5194 H       
 315 H315         -29.2144    11.2518   -14.6670 H       
 316 H316         -29.6580     8.5396   -14.0164 H       
 317 H317         -30.1386     8.7957   -15.7110 H       
 318 H318         -32.3125     8.1420   -14.2586 H       
 319 H319         -33.4355    10.5062   -12.9636 H       
 320 H320         -34.5404     9.4061   -15.5862 H       
 321 H321         -35.3926    10.5649   -14.5378 H       
 322 H322         -33.4512    10.6834   -17.5510 H       
 323 H323         -32.2097    12.9475   -17.7469 H       
 324 H324         -32.1580    14.1751   -15.5041 H       
 325 H325         -36.0144     9.8500   -12.5379 H       
 326 H326         -36.3059     6.9601   -12.2361 H       
 327 H327         -36.1210     8.8376    -9.8383 H       
 328 H328         -36.6952     7.1546    -9.7617 H       
 329 H329         -33.7876     9.3350   -10.2882 H       
 330 H330         -31.4590     8.5470   -10.1469 H       
 331 H331         -30.9827     6.1366    -9.9839 H       
 332 H332         -32.8350     4.5144    -9.9614 H       
 333 H333         -35.1639     5.3030   -10.0943 H       
 334 H334         -38.5810     6.6815   -10.8188 H       
 335 H335         -40.3816     8.9277   -11.3085 H       
 336 H336         -40.6642     6.2650   -12.7710 H       
 337 H337         -41.9257     7.5188   -12.7024 H       
 338 H338         -40.3722     9.1394   -13.7554 H       
 339 H339         -39.1107     7.8856   -13.8240 H       
 340 H340         -40.5756     6.4901   -15.2577 H       
 341 H341         -41.8371     7.7440   -15.1891 H       
 342 H342         -39.4471     8.9354   -16.1085 H       
 343 H343         -41.6505     6.8616   -18.7241 H       
 344 H344         -39.2090     9.3029   -18.4491 H       
 345 H345         -40.1412     8.4246   -19.5364 H       
 346 H346         -42.8214     7.9436   -10.7238 H       
 347 H347         -42.6238     5.8133    -8.7363 H       
 348 H348         -43.3196     8.6863    -7.9808 H       
 349 H349         -43.5705     7.2751    -6.9254 H       
 350 H350         -41.1449     6.7698    -7.0245 H       
 351 H351         -40.8940     8.1810    -8.0798 H       
 352 H352         -41.7592     9.6694    -6.2952 H       
 353 H353         -42.0101     8.2582    -5.2399 H       
 354 H354         -39.5845     7.7529    -5.3390 H       
 355 H355         -39.3336     9.1641    -6.3943 H       
 356 H356         -40.4506     9.2923    -3.6696 H       
 357 H357         -38.8903     9.6874    -4.0882 H       
 358 H358         -45.0587     5.7745    -7.5818 H       
 359 H359         -47.0988     6.7144    -9.4479 H       
 360 H360         -46.5522     3.7477    -8.9910 H       
 361 H361         -48.0108     4.3968    -9.7779 H       
 362 H362         -46.5982     5.4740   -11.5078 H       
 363 H363         -45.1395     4.8249   -10.7209 H       
 364 H364         -45.9251     2.3547   -13.3152 H       
 365 H365         -49.3781     5.6086    -8.5291 H       
 366 H366         -49.2207     5.1682    -5.6466 H       
 367 H367         -50.5904     7.6156    -6.8479 H       
 368 H368         -50.7950     7.0665    -5.1671 H       
 369 H369         -48.3551     7.3023    -4.7930 H       
 370 H370         -48.1505     7.8514    -6.4738 H       
 371 H371         -49.6460     9.7780    -6.0265 H       
 372 H372         -49.8506     9.2289    -4.3457 H       
 373 H373         -47.0874     9.4982    -4.8638 H       
 374 H374         -46.9439    12.8110    -3.7641 H       
 375 H375         -50.0214    11.4493    -4.5836 H       
 376 H376         -49.2475    12.8364    -4.0363 H       
 377 H377         -51.7681     5.0595    -4.8389 H       
 378 H378         -53.4470     4.1584    -7.0941 H       
 379 H379         -54.1585     2.1706    -5.7149 H       
 380 H380         -52.5330     1.4898    -3.8907 H       
 381 H381         -51.8187     3.1161    -4.0048 H       
 382 H382         -53.9171     4.1574    -3.3814 H       
 383 H383         -54.7793     2.6041    -3.4917 H       
 384 H384         -53.5857     2.8695    -2.1983 H       
 385 H385         -51.1653     2.2581    -6.2932 H       
 386 H386         -52.2121     0.8185    -6.2788 H       
 387 H387         -52.4180     2.0562    -7.5414 H       
 388 H388         -55.8438     3.7315    -6.0901 H       
 389 H389         -56.2957     5.2155    -3.6160 H       
 390 H390         -57.4341     6.1301    -6.2949 H       
 391 H391         -57.9803     6.7255    -4.7089 H       
 392 H392         -55.6829     7.5173    -4.2150 H       
 393 H393         -55.1368     6.9219    -5.8011 H       
 394 H394         -55.9146    10.4560    -6.3968 H       
 395 H395         -58.9791     5.2710    -3.3730 H       
 396 H396         -59.7522     2.5567    -3.2675 H       
 397 H397         -60.4599     3.2850    -4.7293 H       
 398 H398         -62.4384     2.5571    -3.0506 H       
 399 H399         -62.9205     4.6402    -1.0616 H       
 400 H400         -64.6154     4.3737    -3.5845 H       
 401 H401         -65.0759     5.3278    -2.1542 H       
 402 H402         -62.5137     5.7392    -3.7588 H       
 403 H403         -65.1165     7.3333    -3.7214 H       
 404 H404         -63.6335     7.7877    -4.5946 H       
 405 H405         -64.5343     6.3280    -5.0700 H       
 406 H406         -63.8591     7.3777    -1.5628 H       
 407 H407         -62.3811     6.4040    -1.3736 H       
 408 H408         -62.3761     7.8321    -2.4360 H       
 409 H409         -65.4646     4.2160    -0.2806 H       
 410 H410         -66.1778     1.3999    -0.5782 H       
 411 H411         -65.2853     2.5809     2.0897 H       
 412 H412         -66.1102     1.0147     1.9036 H       
 413 H413         -64.2754     0.2227     0.4356 H       
 414 H414         -63.4505     1.7889     0.6217 H       
 415 H415         -63.3017     1.4197     3.0692 H       
 416 H416         -64.1266    -0.1465     2.8831 H       
 417 H417         -61.8745    -0.1188     1.1791 H       
 418 H418         -61.2951    -0.8853     5.0617 H       
 419 H419         -59.9059    -1.2424     1.9091 H       
 420 H420         -59.6757    -1.5578     3.5431 H       
 421 H421         -68.1982     1.0533     1.1713 H       
 422 H422         -69.6567     3.5518     1.5689 H       
 423 H423         -70.6182     1.3943    -0.3623 H       
 424 H424         -71.6243     2.7344     0.2376 H       
 425 H425         -70.0212     4.3663    -0.7193 H       
 426 H426         -69.0151     3.0261    -1.3192 H       
 427 H427         -70.9102     2.2220    -2.7015 H       
 428 H428         -71.9164     3.5622    -2.1016 H       
 429 H429         -70.3133     5.1941    -3.0585 H       
 430 H430         -69.3071     3.8539    -3.6584 H       
 431 H431         -72.1188     4.3038    -4.4202 H       
 432 H432         -70.7974     4.6779    -5.3581 H       
 433 H433         -72.0935     2.7559     2.4002 H       
 434 H434         -71.9233     0.1884     3.7808 H       
 435 H435         -71.9958     2.8433     5.2824 H       
 436 H436         -72.2978     1.2541     6.0250 H       
 437 H437         -70.0410     0.4995     5.3276 H       
 438 H438         -69.7391     2.0888     4.5850 H       
 439 H439         -70.0343     3.1768     6.7936 H       
 440 H440         -70.3362     1.5875     7.5361 H       
 441 H441         -67.8619     1.4800     6.1787 H       
 442 H442         -67.9592     3.1878     9.7941 H       
 443 H443         -65.8701     1.7025     7.4647 H       
 444 H444         -65.9258     2.4219     8.9819 H       
 445 H445         -74.1031     0.1573     5.3652 H       
 446 H446         -76.2414     1.7744     4.2075 H       
 447 H447         -76.1269    -1.2559     3.8715 H       
 448 H448         -77.5681    -0.2587     3.5605 H       
 449 H449         -76.3053     1.0377     1.8654 H       
 450 H450         -74.8641     0.0405     2.1763 H       
 451 H451         -76.1153    -1.9845     1.4816 H       
 452 H452         -77.5565    -0.9872     1.1706 H       
 453 H453         -75.3983     0.0838    -0.3029 H       
 454 H454         -76.0841    -1.7996    -3.1642 H       
 455 H455         -77.4317    -2.8026    -0.1352 H       
 456 H456         -77.3335    -3.1709    -1.7715 H       
 457 H457         -78.4868     0.7586     5.2979 H       
 458 H458         -77.9252    -0.4049     7.9168 H       
 459 H459         -79.0504     2.4127     7.5937 H       
 460 H460         -79.0595     1.4895     9.1155 H       
 461 H461         -76.5867     1.3266     9.0316 H       
 462 H462         -76.5775     2.2498     7.5098 H       
 463 H463         -77.6360     4.1698     8.6682 H       
 464 H464         -77.6452     3.2466    10.1900 H       
 465 H465         -75.0016     3.3000     9.1974 H       
 466 H466         -76.3529     6.5222    11.1439 H       
 467 H467         -73.4792     4.8614    10.1538 H       
 468 H468         -74.0609     6.2105    10.9687 H       
 469 H469         -80.2821    -0.4088     9.1774 H       
 470 H470         -82.5228    -0.2639     7.3219 H       
 471 H471         -81.5156    -2.5503     6.9391 H       
 472 H472         -81.8324    -2.9203     8.6511 H       
 473 H473         -84.2592    -2.4080     8.2665 H       
 474 H474         -85.0183    -2.2966     5.8713 H       
 475 H475         -84.0424    -0.8908     6.3607 H       
 476 H476         -83.3128    -2.1810     5.3751 H       
 477 H477         -83.4093    -4.7334     8.1287 H       
 478 H478         -84.7382    -4.4695     6.9744 H       
 479 H479         -83.0537    -4.5010     6.4002 H       
 480 H480         -84.6335    -0.3956     8.5456 H       
 481 H481         -84.4125    -0.4995    11.4556 H       
 482 H482         -85.0813     2.0767     9.9639 H       
 483 H483         -85.3210     1.8290    11.7102 H       
 484 H484         -82.6477     1.5323    10.2699 H       
 485 H485         -83.7215     3.7833    12.0296 H       
 486 H486         -82.0670     3.6707    11.3827 H       
 487 H487         -83.4437     3.8807    10.2742 H       
 488 H488         -83.4011     1.6138    13.2267 H       
 489 H489         -82.8951     0.1655    12.3240 H       
 490 H490         -81.7466     1.5012    12.5798 H       
 491 H491         -86.8275     0.3271    12.3201 H       
 492 H492         -88.8945    -0.2962    10.3537 H       
 493 H493         -89.7964    -2.2026    11.5970 H       
 494 H494         -88.1009    -2.5360    11.1697 H       
 495 H495         -88.5445    -2.9913    13.4722 H       
 496 H496         -91.1555    -0.4406    11.8618 H       
 497 H497         -90.9272     1.6066    13.9643 H       
 498 H498         -92.7350     2.9590    12.8411 H       
 499 H499         -93.0057     2.5589    10.3582 H       
 500 H500         -92.1144     1.0315    10.5610 H       
 501 H501         -94.5716     1.6981    12.2223 H       
 502 H502         -94.6917     0.8911    10.6404 H       
 503 H503         -93.8063     0.1106    11.9728 H       
 504 H504         -90.1393     2.5548    11.2878 H       
 505 H505         -91.2129     3.9660    11.1322 H       
 506 H506         -90.3798     3.6472    12.6725 H       
 507 H507         -93.4345     2.0266    14.7772 H       
 508 H508         -95.0409    -0.4010    14.3250 H       
 509 H509         -95.4483    -0.5785    16.8070 H       
 510 H510         -93.7044     0.5206    18.2739 H       
 511 H511         -93.1782     1.4569    16.8545 H       
 512 H512         -94.8807     2.6029    18.4071 H       
 513 H513         -95.2954     2.5630    16.6765 H       
 514 H514         -96.0683     1.4224    17.8034 H       
 515 H515         -92.5160    -0.8288    16.0039 H       
 516 H516         -93.3535    -1.7422    17.2817 H       
 517 H517         -93.7801    -2.0058    15.5738 H       
 518 H518         -97.3078     0.0222    15.6631 H       
 519 H519         -97.8498     2.8720    15.9981 H       
 520 H520         -99.8065     2.7829    14.4184 H       
 521 H521         -97.0805     2.1787    13.1853 H       
 522 H522         -98.4412     2.9734    12.3574 H       
 523 H523         -97.6421     3.7776    13.7296 H       
 524 H524         -98.5112     0.1282    13.6545 H       
 525 H525        -100.1326     0.3565    14.3524 H       
 526 H526         -99.7803     0.9432    12.7093 H       
 527 H527        -100.2498     3.1281    16.8440 H       
 528 H528        -101.4868     0.6205    17.6863 H       
 529 H529        -101.5569     1.3539    20.0929 H       
 530 H530         -98.7580     1.0333    18.9188 H       
 531 H531         -99.2363     0.6879    20.5981 H       
 532 H532         -99.8845    -0.3001    19.2669 H       
 533 H533        -101.1469     3.7658    19.6889 H       
 534 H534         -99.9448     3.0935    20.8163 H       
 535 H535         -99.5034     3.3908    19.1178 H       
 536 H536        -103.7049     1.1700    18.8244 H       
 537 H537        -104.8630     3.4992    17.4974 H       
 538 H538        -106.0447     1.4017    19.3718 H       
 539 H539        -106.9809     2.6938    18.5828 H       
 540 H540        -105.3044     0.6186    17.1022 H       
 541 H541        -108.3238     0.8210    17.5016 H       
 542 H542        -107.4906    -0.3655    16.4690 H       
 543 H543        -107.2597    -0.4039    18.2335 H       
 544 H544        -106.5104     1.4959    15.1211 H       
 545 H545        -107.3436     2.6824    16.1537 H       
 546 H546        -105.5812     2.7836    15.9254 H       
 547 H547        -105.7083     5.3058    20.5749 H       
 548 H548          11.6217    21.4062   -17.1932 H       
 549 H549          10.8070    20.9235   -15.6860 H       
 550 H550          11.3384    19.6834   -16.8470 H       
 551 H551           9.1748    21.7778   -17.3457 H       
 552 H552           9.7062    20.5377   -18.5067 H       
 553 H553           9.0184    18.7591   -16.9217 H       
 554 H554           8.4870    19.9992   -15.7607 H       
 555 H555           6.8547    20.8536   -17.4204 H       
 556 H556           7.3862    19.6134   -18.5814 H       
 557 H557           6.6984    17.8349   -16.9964 H       
 558 H558           6.1669    19.0750   -15.8354 H       
 559 H559           4.5347    19.9293   -17.4951 H       
 560 H560           5.0661    18.6892   -18.6561 H       
 561 H561           4.3783    16.9106   -17.0712 H       
 562 H562           3.8469    18.1507   -15.9102 H       
 563 H563           2.2147    19.0051   -17.5699 H       
 564 H564           2.7461    17.7649   -18.7309 H       
 565 H565           2.0583    15.9863   -17.1459 H       
 566 H566           1.5269    17.2265   -15.9849 H       
 567 H567          -0.1054    18.0808   -17.6446 H       
 568 H568           0.4261    16.8407   -18.8056 H       
 569 H569          -0.2617    15.0621   -17.2206 H       
 570 H570          -0.7932    16.3022   -16.0596 H       
 571 H571          -2.4254    17.1565   -17.7193 H       
 572 H572          -1.8940    15.9164   -18.8803 H       
 573 H573          -2.5818    14.1378   -17.2953 H       
 574 H574          -3.1132    15.3780   -16.1343 H       
 575 H575          -4.7454    16.2323   -17.7940 H       
 576 H576          -4.2140    14.9922   -18.9550 H       
 577 H577          -5.4332    14.4537   -16.2090 H       
 578 H578          -4.9018    13.2136   -17.3700 H       
@<TRIPOS>BOND
   1    1    2 2
   2    1    4 1
   3    1   11 am
   4    3  251 am
   5    3    4 1
   6    3  268 1
   7    4    5 1
   8    4  269 1
   9    5    6 1
  10    5    8 1
  11    5  270 1
  12    6    7 1
  13    6  271 1
  14    6  272 1
  15    7  273 1
  16    7  274 1
  17    7  275 1
  18    8  276 1
  19    8  277 1
  20    8  278 1
  21    9   10 2
  22    9   12 1
  23    9   16 am
  24   11   12 1
  25   11  279 1
  26   12   13 1
  27   12  280 1
  28   13  281 1
  29   13  282 1
  30   13  283 1
  31   14   15 2
  32   14   17 1
  33   14   25 am
  34   16   17 1
  35   16  284 1
  36   17   18 1
  37   17  285 1
  38   18   19 1
  39   18  286 1
  40   18  287 1
  41   19   20 1
  42   19  288 1
  43   19  289 1
  44   20   21 2
  45   20   22 am
  46   22  290 1
  47   22  291 1
  48   23   24 2
  49   23   26 1
  50   23   32 am
  51   25   26 1
  52   25  292 1
  53   26   27 1
  54   26  293 1
  55   27   28 1
  56   27   29 1
  57   27  294 1
  58   28  295 1
  59   28  296 1
  60   28  297 1
  61   29  298 1
  62   30   31 2
  63   30   33 1
  64   30   40 am
  65   32   33 1
  66   32  299 1
  67   33   34 1
  68   33  300 1
  69   34   35 1
  70   34   37 1
  71   34  301 1
  72   35   36 1
  73   35  302 1
  74   35  303 1
  75   36  304 1
  76   36  305 1
  77   36  306 1
  78   37  307 1
  79   37  308 1
  80   37  309 1
  81   38   39 2
  82   38   41 1
  83   38   45 am
  84   40   41 1
  85   40  310 1
  86   41   42 1
  87   41  311 1
  88   42  312 1
  89   42  313 1
  90   42  314 1
  91   43   44 2
  92   43   46 1
  93   43   49 am
  94   45   46 1
  95   45  315 1
  96   46  316 1
  97   46  317 1
  98   47   48 2
  99   47   50 1
 100   47   59 am
 101   49   50 1
 102   49  318 1
 103   50   51 1
 104   50  319 1
 105   51   52 1
 106   51  320 1
 107   51  321 1
 108   52   53 2
 109   52   56 1
 110   53   54 1
 111   53  322 1
 112   54   55 1
 113   54  323 1
 114   55   56 2
 115   55  324 1
 116   57   58 2
 117   57   60 1
 118   57   70 am
 119   59   60 1
 120   59  325 1
 121   60   61 1
 122   60  326 1
 123   61   62 1
 124   61  327 1
 125   61  328 1
 126   62   63 ar
 127   62   67 ar
 128   63   64 ar
 129   63  329 1
 130   64   65 ar
 131   64  330 1
 132   65   66 ar
 133   65  331 1
 134   66   67 ar
 135   66  332 1
 136   67  333 1
 137   68   69 2
 138   68   71 1
 139   68   81 am
 140   70   71 1
 141   70  334 1
 142   71   72 1
 143   71  335 1
 144   72   73 1
 145   72  336 1
 146   72  337 1
 147   73   74 1
 148   73  338 1
 149   73  339 1
 150   74   75 1
 151   74  340 1
 152   74  341 1
 153   75   76 1
 154   75  342 1
 155   76   77 2
 156   76   78 1
 157   77  343 1
 158   78  344 1
 159   78  345 1
 160   79   80 2
 161   79   82 1
 162   79   90 am
 163   81   82 1
 164   81  346 1
 165   82   83 1
 166   82  347 1
 167   83   84 1
 168   83  348 1
 169   83  349 1
 170   84   85 1
 171   84  350 1
 172   84  351 1
 173   85   86 1
 174   85  352 1
 175   85  353 1
 176   86   87 1
 177   86  354 1
 178   86  355 1
 179   87  356 1
 180   87  357 1
 181   88   89 2
 182   88   91 1
 183   88   99 am
 184   90   91 1
 185   90  358 1
 186   91   92 1
 187   91  359 1
 188   92   93 1
 189   92  360 1
 190   92  361 1
 191   93   94 1
 192   93  362 1
 193   93  363 1
 194   94   95 2
 195   94   96 1
 196   96  364 1
 197   97   98 2
 198   97  100 1
 199   97  110 am
 200   99  100 1
 201   99  365 1
 202  100  101 1
 203  100  366 1
 204  101  102 1
 205  101  367 1
 206  101  368 1
 207  102  103 1
 208  102  369 1
 209  102  370 1
 210  103  104 1
 211  103  371 1
 212  103  372 1
 213  104  105 1
 214  104  373 1
 215  105  106 2
 216  105  107 1
 217  106  374 1
 218  107  375 1
 219  107  376 1
 220  108  109 2
 221  108  111 1
 222  108  118 am
 223  110  111 1
 224  110  377 1
 225  111  112 1
 226  111  378 1
 227  112  113 1
 228  112  115 1
 229  112  379 1
 230  113  114 1
 231  113  380 1
 232  113  381 1
 233  114  382 1
 234  114  383 1
 235  114  384 1
 236  115  385 1
 237  115  386 1
 238  115  387 1
 239  116  117 2
 240  116  119 1
 241  116  127 am
 242  118  119 1
 243  118  388 1
 244  119  120 1
 245  119  389 1
 246  120  121 1
 247  120  390 1
 248  120  391 1
 249  121  122 1
 250  121  392 1
 251  121  393 1
 252  122  123 2
 253  122  124 1
 254  124  394 1
 255  125  126 2
 256  125  128 1
 257  125  131 am
 258  127  128 1
 259  127  395 1
 260  128  396 1
 261  128  397 1
 262  129  130 2
 263  129  132 1
 264  129  139 am
 265  131  132 1
 266  131  398 1
 267  132  133 1
 268  132  399 1
 269  133  134 1
 270  133  400 1
 271  133  401 1
 272  134  135 1
 273  134  136 1
 274  134  402 1
 275  135  403 1
 276  135  404 1
 277  135  405 1
 278  136  406 1
 279  136  407 1
 280  136  408 1
 281  137  138 2
 282  137  140 1
 283  137  150 am
 284  139  140 1
 285  139  409 1
 286  140  141 1
 287  140  410 1
 288  141  142 1
 289  141  411 1
 290  141  412 1
 291  142  143 1
 292  142  413 1
 293  142  414 1
 294  143  144 1
 295  143  415 1
 296  143  416 1
 297  144  145 1
 298  144  417 1
 299  145  146 2
 300  145  147 1
 301  146  418 1
 302  147  419 1
 303  147  420 1
 304  148  149 2
 305  148  151 1
 306  148  159 am
 307  150  151 1
 308  150  421 1
 309  151  152 1
 310  151  422 1
 311  152  153 1
 312  152  423 1
 313  152  424 1
 314  153  154 1
 315  153  425 1
 316  153  426 1
 317  154  155 1
 318  154  427 1
 319  154  428 1
 320  155  156 1
 321  155  429 1
 322  155  430 1
 323  156  431 1
 324  156  432 1
 325  157  158 2
 326  157  160 1
 327  157  170 am
 328  159  160 1
 329  159  433 1
 330  160  161 1
 331  160  434 1
 332  161  162 1
 333  161  435 1
 334  161  436 1
 335  162  163 1
 336  162  437 1
 337  162  438 1
 338  163  164 1
 339  163  439 1
 340  163  440 1
 341  164  165 1
 342  164  441 1
 343  165  166 2
 344  165  167 1
 345  166  442 1
 346  167  443 1
 347  167  444 1
 348  168  169 2
 349  168  171 1
 350  168  181 am
 351  170  171 1
 352  170  445 1
 353  171  172 1
 354  171  446 1
 355  172  173 1
 356  172  447 1
 357  172  448 1
 358  173  174 1
 359  173  449 1
 360  173  450 1
 361  174  175 1
 362  174  451 1
 363  174  452 1
 364  175  176 1
 365  175  453 1
 366  176  177 2
 367  176  178 1
 368  177  454 1
 369  178  455 1
 370  178  456 1
 371  179  180 2
 372  179  182 1
 373  179  192 am
 374  181  182 1
 375  181  457 1
 376  182  183 1
 377  182  458 1
 378  183  184 1
 379  183  459 1
 380  183  460 1
 381  184  185 1
 382  184  461 1
 383  184  462 1
 384  185  186 1
 385  185  463 1
 386  185  464 1
 387  186  187 1
 388  186  465 1
 389  187  188 2
 390  187  189 1
 391  188  466 1
 392  189  467 1
 393  189  468 1
 394  190  191 2
 395  190  193 1
 396  190  200 am
 397  192  193 1
 398  192  469 1
 399  193  194 1
 400  193  470 1
 401  194  195 1
 402  194  471 1
 403  194  472 1
 404  195  196 1
 405  195  197 1
 406  195  473 1
 407  196  474 1
 408  196  475 1
 409  196  476 1
 410  197  477 1
 411  197  478 1
 412  197  479 1
 413  198  199 2
 414  198  201 1
 415  198  208 am
 416  200  201 1
 417  200  480 1
 418  201  202 1
 419  201  481 1
 420  202  203 1
 421  202  482 1
 422  202  483 1
 423  203  204 1
 424  203  205 1
 425  203  484 1
 426  204  485 1
 427  204  486 1
 428  204  487 1
 429  205  488 1
 430  205  489 1
 431  205  490 1
 432  206  207 2
 433  206  209 1
 434  206  214 am
 435  208  209 1
 436  208  491 1
 437  209  210 1
 438  209  492 1
 439  210  211 1
 440  210  493 1
 441  210  494 1
 442  211  495 1
 443  212  213 2
 444  212  215 1
 445  212  222 am
 446  214  215 1
 447  214  496 1
 448  215  216 1
 449  215  497 1
 450  216  217 1
 451  216  219 1
 452  216  498 1
 453  217  218 1
 454  217  499 1
 455  217  500 1
 456  218  501 1
 457  218  502 1
 458  218  503 1
 459  219  504 1
 460  219  505 1
 461  219  506 1
 462  220  221 2
 463  220  223 1
 464  220  230 am
 465  222  223 1
 466  222  507 1
 467  223  224 1
 468  223  508 1
 469  224  225 1
 470  224  227 1
 471  224  509 1
 472  225  226 1
 473  225  510 1
 474  225  511 1
 475  226  512 1
 476  226  513 1
 477  226  514 1
 478  227  515 1
 479  227  516 1
 480  227  517 1
 481  228  229 2
 482  228  231 1
 483  228  237 am
 484  230  231 1
 485  230  518 1
 486  231  232 1
 487  231  519 1
 488  232  233 1
 489  232  234 1
 490  232  520 1
 491  233  521 1
 492  233  522 1
 493  233  523 1
 494  234  524 1
 495  234  525 1
 496  234  526 1
 497  235  236 2
 498  235  238 1
 499  235  244 am
 500  237  238 1
 501  237  527 1
 502  238  239 1
 503  238  528 1
 504  239  240 1
 505  239  241 1
 506  239  529 1
 507  240  530 1
 508  240  531 1
 509  240  532 1
 510  241  533 1
 511  241  534 1
 512  241  535 1
 513  242  243 2
 514  242  245 1
 515  242  250 1
 516  244  245 1
 517  244  536 1
 518  245  246 1
 519  245  537 1
 520  246  247 1
 521  246  538 1
 522  246  539 1
 523  247  248 1
 524  247  249 1
 525  247  540 1
 526  248  541 1
 527  248  542 1
 528  248  543 1
 529  249  544 1
 530  249  545 1
 531  249  546 1
 532  250  547 1
 533  251  252 2
 534  251  267 1
 535  253  254 1
 536  253  548 1
 537  253  549 1
 538  253  550 1
 539  254  255 1
 540  254  551 1
 541  254  552 1
 542  255  256 1
 543  255  553 1
 544  255  554 1
 545  256  257 1
 546  256  555 1
 547  256  556 1
 548  257  258 1
 549  257  557 1
 550  257  558 1
 551  258  259 1
 552  258  559 1
 553  258  560 1
 554  259  260 1
 555  259  561 1
 556  259  562 1
 557  260  261 1
 558  260  563 1
 559  260  564 1
 560  261  262 1
 561  261  565 1
 562  261  566 1
 563  262  263 1
 564  262  567 1
 565  262  568 1
 566  263  264 1
 567  263  569 1
 568  263  570 1
 569  264  265 1
 570  264  571 1
 571  264  572 1
 572  265  266 1
 573  265  573 1
 574  265  574 1
 575  266  267 1
 576  266  575 1
 577  266  576 1
 578  267  577 1
 579  267  578 1

#	End of record

