#	Name: ASD01140544
#	Creating user name:	WinNT
#	Creation time:	15. 06. 2019 19:01

#	Modifying user name:	WinNT
#	Modification time:	15. 06. 2019 19:01

#	Program:	/corina/corina34_cracker 3.40 0067  02.08.2006

@<TRIPOS>MOLECULE
ASD01140544
  32   34    0    0    0
SMALL
NO_CHARGES


@<TRIPOS>ATOM
   1 O1            -0.0173     1.4232     0.0099 O.3     
   2 O2             3.2920    -0.5768     1.0947 O.2     
   3 O3             4.6939     1.5739     0.8800 O.3     
   4 O4             2.4555     5.3702    -0.8912 O.3     
   5 O5            -5.2278    -1.9596     0.7428 O.3     
   6 C6             0.0021    -0.0041     0.0020 C.3     
   7 C7             0.9027    -0.5065     1.1399 C.3     
   8 C8            -1.3973    -0.5271     0.1999 C.ar    
   9 C9             2.3430     1.4669     0.4464 C.ar    
  10 C10            2.2856     0.0755     0.9078 C.2     
  11 C11            1.1613     2.0892     0.0022 C.ar    
  12 C12            3.5570     2.1711     0.4442 C.ar    
  13 C13            1.2125     3.3974    -0.4449 C.ar    
  14 C14           -1.7986    -1.6846    -0.4411 C.ar    
  15 C15           -2.2760     0.1482     1.0267 C.ar    
  16 C16            3.5853     3.4794    -0.0055 C.ar    
  17 C17            2.4179     4.0881    -0.4490 C.ar    
  18 C18           -3.0807    -2.1664    -0.2609 C.ar    
  19 C19           -3.5592    -0.3294     1.2102 C.ar    
  20 C20           -3.9659    -1.4877     0.5640 C.ar    
  21 H21            0.3912    -0.3573    -0.9529 H       
  22 H22            0.5131    -0.1665     2.0994 H       
  23 H23            0.9504    -1.5953     1.1224 H       
  24 H24            0.3126     3.8831    -0.7922 H       
  25 H25           -1.1092    -2.2124    -1.0834 H       
  26 H26           -1.9588     1.0497     1.5298 H       
  27 H27            4.5155     4.0280    -0.0112 H       
  28 H28           -3.3938    -3.0704    -0.7621 H       
  29 H29           -4.2451     0.1982     1.8564 H       
  30 H30            5.1879     1.1152     0.1867 H       
  31 H31            2.3045     6.0293    -0.1999 H       
  32 H32           -5.3165    -2.5740     1.4843 H       
@<TRIPOS>BOND
   1    1    6 1
   2    1   11 1
   3    2   10 2
   4    3   12 1
   5    3   30 1
   6    4   17 1
   7    4   31 1
   8    5   20 1
   9    5   32 1
  10    6    7 1
  11    6    8 1
  12    6   21 1
  13    7   10 1
  14    7   22 1
  15    7   23 1
  16    8   14 ar
  17    8   15 ar
  18    9   10 1
  19    9   11 ar
  20    9   12 ar
  21   11   13 ar
  22   12   16 ar
  23   13   17 ar
  24   13   24 1
  25   14   18 ar
  26   14   25 1
  27   15   19 ar
  28   15   26 1
  29   16   17 ar
  30   16   27 1
  31   18   20 ar
  32   18   28 1
  33   19   20 ar
  34   19   29 1

#	End of record

