#	Name: ASD01440003
#	Creating user name:	WinNT
#	Creation time:	15. 06. 2019 19:20

#	Modifying user name:	WinNT
#	Modification time:	15. 06. 2019 19:20

#	Program:	/corina/corina34_cracker 3.40 0067  02.08.2006

@<TRIPOS>MOLECULE
ASD01440003
  47   48    0    0    0
SMALL
NO_CHARGES


@<TRIPOS>ATOM
   1 C1            -1.0627    -1.1204     0.1972 C.3     
   2 C2             0.1557    -0.2116     0.0226 C.3     
   3 N3             0.8582    -0.5672    -1.2176 N.3     
   4 C4             1.4076    -1.9274    -1.1399 C.3     
   5 C5             2.5043    -1.9743    -0.0741 C.3     
   6 C6             3.0679    -3.3697     0.0056 C.ar    
   7 C7             4.1434    -3.7270    -0.7860 C.ar    
   8 C8             4.6603    -5.0069    -0.7130 C.ar    
   9 C9             4.1022    -5.9295     0.1520 C.ar    
  10 C10            3.0273    -5.5719     0.9443 C.ar    
  11 C11            2.5131    -4.2907     0.8744 C.ar    
  12 N12            4.6551    -7.3003     0.2296 N.pl3   
  13 O13            5.6019    -7.6155    -0.4688 O.2     
  14 O14            4.1633    -8.1132     0.9917 O.2     
  15 C15           -0.0245    -0.4217    -2.3828 C.3     
  16 C16           -0.1873     1.0624    -2.7171 C.3     
  17 O17            1.0758     1.6039    -3.1087 O.3     
  18 C18            1.1060     2.9213    -3.4410 C.ar    
  19 C19            2.2991     3.5124    -3.8306 C.ar    
  20 C20            2.3271     4.8516    -4.1684 C.ar    
  21 C21            1.1674     5.6028    -4.1185 C.ar    
  22 C22           -0.0230     5.0160    -3.7305 C.ar    
  23 C23           -0.0573     3.6759    -3.3968 C.ar    
  24 N24            1.2003     7.0375    -4.4804 N.pl3   
  25 O25            2.2484     7.5555    -4.8220 O.2     
  26 O26            0.1792     7.7002    -4.4368 O.2     
  27 H27           -1.7871    -0.9121    -0.5902 H       
  28 H28           -0.7500    -2.1628     0.1368 H       
  29 H29           -1.5189    -0.9337     1.1693 H       
  30 H30           -0.1703     0.8272    -0.0296 H       
  31 H31            0.8285    -0.3390     0.8706 H       
  32 H32            0.6134    -2.6255    -0.8751 H       
  33 H33            1.8281    -2.2051    -2.1064 H       
  34 H34            3.2984    -1.2763    -0.3389 H       
  35 H35            2.0838    -1.6966     0.8924 H       
  36 H36            4.5794    -3.0062    -1.4619 H       
  37 H37            5.5001    -5.2863    -1.3320 H       
  38 H38            2.5910    -6.2928     1.6199 H       
  39 H39            1.6733    -4.0113     1.4934 H       
  40 H40            0.4120    -0.9406    -3.2363 H       
  41 H41           -0.9998    -0.8522    -2.1559 H       
  42 H42           -0.8999     1.1747    -3.5343 H       
  43 H43           -0.5543     1.5944    -1.8393 H       
  44 H44            3.2053     2.9262    -3.8694 H       
  45 H45            3.2557     5.3123    -4.4714 H       
  46 H46           -0.9275     5.6049    -3.6920 H       
  47 H47           -0.9873     3.2180    -3.0938 H       
@<TRIPOS>BOND
   1    1    2 1
   2    1   27 1
   3    1   28 1
   4    1   29 1
   5    2    3 1
   6    2   30 1
   7    2   31 1
   8    3    4 1
   9    3   15 1
  10    4    5 1
  11    4   32 1
  12    4   33 1
  13    5    6 1
  14    5   34 1
  15    5   35 1
  16    6    7 ar
  17    6   11 ar
  18    7    8 ar
  19    7   36 1
  20    8    9 ar
  21    8   37 1
  22    9   10 ar
  23    9   12 1
  24   10   11 ar
  25   10   38 1
  26   11   39 1
  27   12   13 2
  28   12   14 2
  29   15   16 1
  30   15   40 1
  31   15   41 1
  32   16   17 1
  33   16   42 1
  34   16   43 1
  35   17   18 1
  36   18   19 ar
  37   18   23 ar
  38   19   20 ar
  39   19   44 1
  40   20   21 ar
  41   20   45 1
  42   21   22 ar
  43   21   24 1
  44   22   23 ar
  45   22   46 1
  46   23   47 1
  47   24   25 2
  48   24   26 2

#	End of record

