#	Name: ASD01940440
#	Creating user name:	WinNT
#	Creation time:	15. 06. 2019 20:12

#	Modifying user name:	WinNT
#	Modification time:	15. 06. 2019 20:12

#	Program:	/corina/corina34_cracker 3.40 0067  02.08.2006

@<TRIPOS>MOLECULE
ASD01940440
  21   22    0    0    0
SMALL
NO_CHARGES


@<TRIPOS>ATOM
   1 N1            -0.0169     1.3941     0.0097 N.pl3   
   2 N2             0.0021    -0.0041     0.0020 N.2     
   3 C3             1.2307    -0.4351    -0.0120 C.2     
   4 C4             2.1102     0.7306    -0.0142 C.ar    
   5 C5             3.4974     0.8971    -0.0269 C.ar    
   6 C6             4.0307     2.1827    -0.0255 C.ar    
   7 C7             3.1787     3.2989    -0.0114 C.ar    
   8 C8             1.8268     3.1406     0.0015 C.ar    
   9 C9             1.2687     1.8611    -0.0001 C.ar    
  10 C10            5.4927     2.3730    -0.0384 C.2     
  11 O11            6.2309     1.4079    -0.0502 O.2     
  12 O12            6.0102     3.6171    -0.0370 O.3     
  13 Cl13           4.5459    -0.4864    -0.0438 Cl      
  14 C14            7.4579     3.7289    -0.0502 C.3     
  15 H15           -0.8150     1.9454     0.0166 H       
  16 H16            1.5431    -1.4689    -0.0202 H       
  17 H17            3.6004     4.2932    -0.0104 H       
  18 H18            1.1837     4.0082     0.0130 H       
  19 H19            7.7410     4.7815    -0.0475 H       
  20 H20            7.8681     3.2401     0.8335 H       
  21 H21            7.8512     3.2491    -0.9463 H       
@<TRIPOS>BOND
   1    1    2 1
   2    1    9 1
   3    1   15 1
   4    2    3 2
   5    3    4 1
   6    3   16 1
   7    4    5 ar
   8    4    9 ar
   9    5    6 ar
  10    5   13 1
  11    6    7 ar
  12    6   10 1
  13    7    8 ar
  14    7   17 1
  15    8    9 ar
  16    8   18 1
  17   10   11 2
  18   10   12 1
  19   12   14 1
  20   14   19 1
  21   14   20 1
  22   14   21 1

#	End of record

