#	Name: ASD04910173
#	Creating user name:	WinNT
#	Creation time:	15. 06. 2019 20:55

#	Modifying user name:	WinNT
#	Modification time:	15. 06. 2019 20:55

#	Program:	/corina/corina34_cracker 3.40 0067  02.08.2006

@<TRIPOS>MOLECULE
ASD04910173
  26   28    0    0    0
SMALL
NO_CHARGES


@<TRIPOS>ATOM
   1 C1            -0.0167     1.3834     0.0096 C.ar    
   2 C2             0.0021    -0.0041     0.0020 C.ar    
   3 C3             1.2066    -0.6782    -0.0131 C.ar    
   4 C4             2.3997     0.0325    -0.0206 C.ar    
   5 C5             2.3802     1.4211    -0.0130 C.ar    
   6 C6             1.1751     2.0941     0.0021 C.ar    
   7 O7            -1.2031     2.0467     0.0189 O.3     
   8 N8             3.7651    -2.0436    -0.0443 N.2     
   9 N9             3.6229    -0.6513    -0.0355 N.pl3   
  10 C10            4.8323    -0.0679    -0.0438 C.2     
  11 C11            5.7863    -1.0687    -0.0583 C.ar    
  12 C12            7.1972    -1.0971    -0.0718 C.ar    
  13 C13            7.8423    -2.2917    -0.0844 C.ar    
  14 C14            7.1448    -3.5028    -0.0847 C.ar    
  15 C15            5.7890    -3.5470    -0.0721 C.ar    
  16 C16            5.0521    -2.3438    -0.0582 C.ar    
  17 Cl17           9.5780    -2.3154    -0.1009 Cl      
  18 H18           -0.9258    -0.5566     0.0083 H       
  19 H19            1.2211    -1.7581    -0.0187 H       
  20 H20            3.3078     1.9744    -0.0185 H       
  21 H21            1.1598     3.1740     0.0077 H       
  22 H22           -1.5422     2.2338     0.9049 H       
  23 H23            5.0257     0.9946    -0.0400 H       
  24 H24            7.7597    -0.1751    -0.0726 H       
  25 H25            7.7004    -4.4288    -0.0957 H       
  26 H26            5.2766    -4.4977    -0.0724 H       
@<TRIPOS>BOND
   1    1    2 ar
   2    1    6 ar
   3    1    7 1
   4    2    3 ar
   5    2   18 1
   6    3    4 ar
   7    3   19 1
   8    4    5 ar
   9    4    9 1
  10    5    6 ar
  11    5   20 1
  12    6   21 1
  13    7   22 1
  14    8    9 1
  15    8   16 2
  16    9   10 1
  17   10   11 2
  18   10   23 1
  19   11   12 ar
  20   11   16 ar
  21   12   13 ar
  22   12   24 1
  23   13   14 ar
  24   13   17 1
  25   14   15 ar
  26   14   25 1
  27   15   16 ar
  28   15   26 1

#	End of record

