#	Name: ASD03380001
#	Creating user name:	WinNT
#	Creation time:	15. 06. 2019 20:40

#	Modifying user name:	WinNT
#	Modification time:	15. 06. 2019 20:40

#	Program:	/corina/corina34_cracker 3.40 0067  02.08.2006

@<TRIPOS>MOLECULE
ASD03380001
  65   67    0    0    0
SMALL
NO_CHARGES


@<TRIPOS>ATOM
   1 C1            -0.0184     1.5028     0.0103 C.2     
   2 N2             1.3055    -0.4734    -0.4867 N.3     
   3 C3             0.0021    -0.0041     0.0020 C.3     
   4 C4            -0.2279    -0.5251     1.4221 C.3     
   5 C5            -0.3300    -2.0284     1.3953 C.ar    
   6 C6             0.8076    -2.8001     1.5442 C.ar    
   7 C7             0.7167    -4.1783     1.5195 C.ar    
   8 C8            -0.5173    -4.7880     1.3456 C.ar    
   9 O9            -0.6093    -6.1436     1.3214 O.3     
  10 C10           -1.6572    -4.0114     1.1968 C.ar    
  11 C11           -1.5617    -2.6336     1.2274 C.ar    
  12 O12            1.0236     2.1234     0.0037 O.2     
  13 N13           -1.1946     2.1607     0.0195 N.am    
  14 C14           -1.2145     3.6256     0.0275 C.3     
  15 C15           -1.1025     4.1450    -1.4072 C.3     
  16 C16            0.2417     3.7677    -1.9746 C.ar    
  17 C17            0.3964     2.5670    -2.6426 C.ar    
  18 C18            1.6275     2.2188    -3.1637 C.ar    
  19 C19            2.7091     3.0749    -3.0162 C.ar    
  20 C20            2.5513     4.2791    -2.3456 C.ar    
  21 C21            1.3167     4.6253    -1.8313 C.ar    
  22 O22            3.9213     2.7344    -3.5275 O.3     
  23 C23           -2.5060     4.1071     0.6367 C.2     
  24 N24           -2.7466     5.4284     0.7491 N.am    
  25 O25           -3.3288     3.3056     1.0259 O.2     
  26 C26           -4.0022     5.8965     1.3414 C.3     
  27 C27           -3.8642     5.9408     2.8414 C.2     
  28 O28           -4.8971     6.3424     3.5988 O.3     
  29 C29           -4.3222     7.2978     0.8170 C.3     
  30 C30           -4.5811     7.2321    -0.6661 C.ar    
  31 O31           -2.8239     5.6148     3.3623 O.2     
  32 C32           -5.8633     7.0154    -1.1350 C.ar    
  33 C33           -6.1007     6.9552    -2.4955 C.ar    
  34 C34           -5.0561     7.1121    -3.3870 C.ar    
  35 C35           -3.7740     7.3297    -2.9182 C.ar    
  36 C36           -3.5372     7.3943    -1.5578 C.ar    
  37 H37            2.0536    -0.1430     0.1043 H       
  38 H38            1.3222    -1.4794    -0.5627 H       
  39 H39           -0.7864    -0.3745    -0.6531 H       
  40 H40            0.6068    -0.2288     2.0574 H       
  41 H41           -1.1526    -0.1051     1.8179 H       
  42 H42            1.7680    -2.3250     1.6796 H       
  43 H43            1.6056    -4.7807     1.6352 H       
  44 H44           -0.7556    -6.5435     2.1896 H       
  45 H45           -2.6189    -4.4836     1.0609 H       
  46 H46           -2.4494    -2.0286     1.1160 H       
  47 H47           -2.0280     1.6644     0.0207 H       
  48 H48           -0.3749     3.9971     0.6150 H       
  49 H49           -1.8910     3.7030    -2.0163 H       
  50 H50           -1.2064     5.2301    -1.4100 H       
  51 H51           -0.4459     1.9007    -2.7568 H       
  52 H52            1.7479     1.2806    -3.6850 H       
  53 H53            3.3917     4.9473    -2.2295 H       
  54 H54            1.1933     5.5625    -1.3091 H       
  55 H55            4.0624     3.0320    -4.4367 H       
  56 H56           -2.0885     6.0694     0.4379 H       
  57 H57           -4.8081     5.2144     1.0706 H       
  58 H58           -4.7611     6.3542     4.5561 H       
  59 H59           -5.2075     7.6819     1.3237 H       
  60 H60           -3.4776     7.9594     1.0095 H       
  61 H61           -6.6795     6.8928    -0.4384 H       
  62 H62           -7.1024     6.7852    -2.8618 H       
  63 H63           -5.2415     7.0643    -4.4499 H       
  64 H64           -2.9578     7.4520    -3.6147 H       
  65 H65           -2.5356     7.5643    -1.1914 H       
@<TRIPOS>BOND
   1    1    3 1
   2    1   12 2
   3    1   13 am
   4    2    3 1
   5    2   37 1
   6    2   38 1
   7    3    4 1
   8    3   39 1
   9    4    5 1
  10    4   40 1
  11    4   41 1
  12    5    6 ar
  13    5   11 ar
  14    6    7 ar
  15    6   42 1
  16    7    8 ar
  17    7   43 1
  18    8    9 1
  19    8   10 ar
  20    9   44 1
  21   10   11 ar
  22   10   45 1
  23   11   46 1
  24   13   14 1
  25   13   47 1
  26   14   23 1
  27   14   15 1
  28   14   48 1
  29   15   16 1
  30   15   49 1
  31   15   50 1
  32   16   17 ar
  33   16   21 ar
  34   17   18 ar
  35   17   51 1
  36   18   19 ar
  37   18   52 1
  38   19   20 ar
  39   19   22 1
  40   20   21 ar
  41   20   53 1
  42   21   54 1
  43   22   55 1
  44   23   24 am
  45   23   25 2
  46   24   26 1
  47   24   56 1
  48   26   27 1
  49   26   29 1
  50   26   57 1
  51   27   28 1
  52   27   31 2
  53   28   58 1
  54   29   30 1
  55   29   59 1
  56   29   60 1
  57   30   32 ar
  58   30   36 ar
  59   32   33 ar
  60   32   61 1
  61   33   34 ar
  62   33   62 1
  63   34   35 ar
  64   34   63 1
  65   35   36 ar
  66   35   64 1
  67   36   65 1

#	End of record

