#	Name: ASD01903167
#	Creating user name:	WinNT
#	Creation time:	15. 06. 2019 19:54

#	Modifying user name:	WinNT
#	Modification time:	15. 06. 2019 19:54

#	Program:	/corina/corina34_cracker 3.40 0067  02.08.2006

@<TRIPOS>MOLECULE
ASD01903167
  54   57    0    0    0
SMALL
NO_CHARGES


@<TRIPOS>ATOM
   1 C1             0.6208    -1.7695    -0.0521 C.ar    
   2 C2            -0.1758    -1.1610    -1.0090 C.ar    
   3 C3             0.3070    -0.0559    -1.6922 C.ar    
   4 N4             1.5074     0.4202    -1.4439 N.ar    
   5 C5             2.3018    -0.1330    -0.5355 C.ar    
   6 C6             1.8817    -1.2462     0.1887 C.ar    
   7 C7             3.6463     0.4382    -0.2901 C.2     
   8 N8             4.0585     1.5152    -0.9877 N.am    
   9 O9             4.3777    -0.0642     0.5403 O.2     
  10 C10            5.2868     2.1132    -0.6895 C.ar    
  11 C11            6.3899     1.3247    -0.3884 C.ar    
  12 C12            7.6016     1.9185    -0.0943 C.ar    
  13 C13            7.7173     3.2965    -0.0994 C.ar    
  14 C14            6.6209     4.0845    -0.3983 C.ar    
  15 C15            5.4079     3.4969    -0.6994 C.ar    
  16 S16            9.2651     4.0501     0.2764 S.o2    
  17 O17            8.9718     5.3642     0.7307 O.2     
  18 O18            9.9943     3.1057     1.0482 O.2     
  19 N19           10.0865     4.2212    -1.1513 N.am    
  20 C20            9.5501     5.0041    -2.1761 C.ar    
  21 C21            9.7210     4.6274    -3.5020 C.ar    
  22 C22            9.1888     5.4036    -4.5129 C.ar    
  23 C23            8.4869     6.5547    -4.2063 C.ar    
  24 C24            8.3148     6.9327    -2.8871 C.ar    
  25 C25            8.8393     6.1583    -1.8713 C.ar    
  26 S26           10.6163     3.1613    -3.8939 S.o2    
  27 O27            9.6497     1.9935    -3.7588 O.3     
  28 O28           10.9480     3.2502    -5.2728 O.2     
  29 O29           11.5878     2.9985    -2.8698 O.2     
  30 C30            8.7574     1.8936    -4.7791 C.ar    
  31 C31            9.0669     1.1392    -5.9015 C.ar    
  32 C32            8.1583     1.0393    -6.9372 C.ar    
  33 C33            6.9412     1.6904    -6.8559 C.ar    
  34 C34            6.6305     2.4431    -5.7385 C.ar    
  35 C35            7.5332     2.5412    -4.6974 C.ar    
  36 H36            0.2656    -2.6291     0.4968 H       
  37 H37           -1.1630    -1.5443    -1.2207 H       
  38 H38           -0.3110     0.4206    -2.4388 H       
  39 H39            2.5292    -1.6954     0.9272 H       
  40 H40            3.5031     1.8755    -1.6967 H       
  41 H41            6.3001     0.2485    -0.3839 H       
  42 H42            8.4596     1.3060     0.1403 H       
  43 H43            6.7146     5.1604    -0.4011 H       
  44 H44            4.5520     4.1128    -0.9328 H       
  45 H45           10.9402     3.7778    -1.2759 H       
  46 H46            9.3214     5.1113    -5.5441 H       
  47 H47            8.0724     7.1602    -4.9987 H       
  48 H48            7.7663     7.8327    -2.6510 H       
  49 H49            8.7043     6.4538    -0.8413 H       
  50 H50           10.0176     0.6308    -5.9656 H       
  51 H51            8.3989     0.4525    -7.8114 H       
  52 H52            6.2322     1.6110    -7.6667 H       
  53 H53            5.6795     2.9513    -5.6776 H       
  54 H54            7.2901     3.1293    -3.8248 H       
@<TRIPOS>BOND
   1    1    2 ar
   2    1    6 ar
   3    1   36 1
   4    2    3 ar
   5    2   37 1
   6    3    4 ar
   7    3   38 1
   8    4    5 ar
   9    5    6 ar
  10    5    7 1
  11    6   39 1
  12    7    8 am
  13    7    9 2
  14    8   10 1
  15    8   40 1
  16   10   11 ar
  17   10   15 ar
  18   11   12 ar
  19   11   41 1
  20   12   13 ar
  21   12   42 1
  22   13   14 ar
  23   13   16 1
  24   14   15 ar
  25   14   43 1
  26   15   44 1
  27   16   17 2
  28   16   18 2
  29   16   19 am
  30   19   20 1
  31   19   45 1
  32   20   21 ar
  33   20   25 ar
  34   21   22 ar
  35   21   26 1
  36   22   23 ar
  37   22   46 1
  38   23   24 ar
  39   23   47 1
  40   24   25 ar
  41   24   48 1
  42   25   49 1
  43   26   27 1
  44   26   28 2
  45   26   29 2
  46   27   30 1
  47   30   31 ar
  48   30   35 ar
  49   31   32 ar
  50   31   50 1
  51   32   33 ar
  52   32   51 1
  53   33   34 ar
  54   33   52 1
  55   34   35 ar
  56   34   53 1
  57   35   54 1

#	End of record

