#	Name: ASD01810430
#	Creating user name:	WinNT
#	Creation time:	15. 06. 2019 19:24

#	Modifying user name:	WinNT
#	Modification time:	15. 06. 2019 19:24

#	Program:	/corina/corina34_cracker 3.40 0067  02.08.2006

@<TRIPOS>MOLECULE
ASD01810430
  41   44    0    0    0
SMALL
NO_CHARGES


@<TRIPOS>ATOM
   1 C1            -0.0167     1.3786     0.0096 C.2     
   2 C2             0.0021    -0.0041     0.0020 C.2     
   3 N3             1.1859     2.0800     0.0019 N.pl3   
   4 C4             2.3780     1.4768    -0.0131 C.2     
   5 C5             2.4819     0.1005    -0.0220 C.2     
   6 C6             1.2450    -0.6933    -0.0140 C.2     
   7 O7             1.2842    -1.9134    -0.0208 O.2     
   8 C8             3.7970    -0.5551    -0.0391 C.2     
   9 C9             1.1423     3.5443     0.0102 C.3     
  10 C10            1.1409     4.0388     1.4337 C.ar    
  11 O11            4.8107     0.1160    -0.0456 O.2     
  12 O12            3.8794    -1.9006    -0.0476 O.3     
  13 C13            2.3390     4.3006     2.0734 C.ar    
  14 C14            2.3436     4.7537     3.3771 C.ar    
  15 C15            1.1383     4.9472     4.0489 C.ar    
  16 C16           -0.0657     4.6818     3.3997 C.ar    
  17 C17           -0.0587     4.2345     2.0940 C.ar    
  18 C18            1.1370     5.4336     5.4508 C.ar    
  19 C19           -0.0683     5.6271     6.1226 C.ar    
  20 C20           -0.0637     6.0798     7.4265 C.ar    
  21 C21            1.1344     6.3416     8.0661 C.ar    
  22 C22            2.3338     6.1517     7.4038 C.ar    
  23 C23            2.3412     5.6931     6.1021 C.ar    
  24 S24           -1.6461    -0.6212     0.0144 S.3     
  25 C25           -2.2981     1.0089     0.0294 C.2     
  26 C26           -1.3122     1.8998     0.0305 C.2     
  27 H27            3.2761     2.0766    -0.0188 H       
  28 H28            2.0161     3.9367    -0.5099 H       
  29 H29            0.2370     3.8837    -0.4932 H       
  30 H30            4.7661    -2.2861    -0.0588 H       
  31 H31            3.2727     4.1499     1.5518 H       
  32 H32            3.2797     4.9575     3.8757 H       
  33 H33           -1.0027     4.8301     3.9158 H       
  34 H34           -0.9913     4.0285     1.5898 H       
  35 H35           -1.0044     5.4236     5.6239 H       
  36 H36           -0.9973     6.2301     7.9482 H       
  37 H37            1.1334     6.6961     9.0863 H       
  38 H38            3.2665     6.3581     7.9078 H       
  39 H39            3.2782     5.5448     5.5860 H       
  40 H40           -3.3502     1.2527     0.0407 H       
  41 H41           -1.5014     2.9631     0.0390 H       
@<TRIPOS>BOND
   1    1    2 2
   2    1    3 1
   3    1   26 1
   4    2   24 1
   5    2    6 1
   6    3    4 1
   7    3    9 1
   8    4    5 2
   9    4   27 1
  10    5    6 1
  11    5    8 1
  12    6    7 2
  13    8   11 2
  14    8   12 1
  15    9   10 1
  16    9   28 1
  17    9   29 1
  18   10   13 ar
  19   10   17 ar
  20   12   30 1
  21   13   14 ar
  22   13   31 1
  23   14   15 ar
  24   14   32 1
  25   15   16 ar
  26   15   18 1
  27   16   17 ar
  28   16   33 1
  29   17   34 1
  30   18   19 ar
  31   18   23 ar
  32   19   20 ar
  33   19   35 1
  34   20   21 ar
  35   20   36 1
  36   21   22 ar
  37   21   37 1
  38   22   23 ar
  39   22   38 1
  40   23   39 1
  41   24   25 1
  42   25   26 2
  43   25   40 1
  44   26   41 1

#	End of record

