#	Name: ASD03092068
#	Creating user name:	WinNT
#	Creation time:	15. 06. 2019 20:31

#	Modifying user name:	WinNT
#	Modification time:	15. 06. 2019 20:31

#	Program:	/corina/corina34_cracker 3.40 0067  02.08.2006

@<TRIPOS>MOLECULE
ASD03092068
  46   48    0    0    0
SMALL
NO_CHARGES


@<TRIPOS>ATOM
   1 N1             0.0834     1.0294    -0.0867 N.pl3   
   2 C2            -0.0876    -0.2722     0.2811 C.2     
   3 C3            -1.4303    -0.4889     0.4073 C.2     
   4 C4            -2.0875     0.7112     0.1083 C.2     
   5 N5            -1.1837     1.6188    -0.1814 N.2     
   6 N6            -3.4731     0.9109     0.1212 N.pl3   
   7 C7            -3.9981     2.1895    -0.1005 C.ar    
   8 C8            -5.3590     2.4214     0.0643 C.ar    
   9 C9            -5.8748     3.6874    -0.1554 C.ar    
  10 C10           -5.0343     4.7213    -0.5391 C.ar    
  11 C11           -3.1597     3.2292    -0.4797 C.ar    
  12 C12            0.9843    -1.2674     0.5025 C.ar    
  13 C13            1.3649     1.6950    -0.3331 C.3     
  14 C14            2.2531    -1.0951    -0.0618 C.ar    
  15 C15            3.2232    -2.0479     0.1704 C.ar    
  16 N16            2.9672    -3.1088     0.9118 N.ar    
  17 C17            1.7848    -3.3095     1.4623 C.ar    
  18 C18            0.7592    -2.4045     1.2871 C.ar    
  19 C19            1.5538    -4.5417     2.2987 C.3     
  20 C20            1.7060     1.6019    -1.7980 C.2     
  21 N21            2.8481     2.1482    -2.2601 N.am    
  22 C22           -3.6794     4.4898    -0.7030 C.ar    
  23 F23           -7.1970     3.9152     0.0036 F       
  24 O24            0.9527     1.0352    -2.5612 O.2     
  25 C25            3.1797     2.0576    -3.6842 C.3     
  26 C26            3.7581     2.8326    -1.3382 C.3     
  27 F27           -6.1768     1.4130     0.4377 F       
  28 F28           -5.5385     5.9562    -0.7537 F       
  29 H29           -1.9011    -1.4196     0.6872 H       
  30 H30           -4.0693     0.1632     0.2838 H       
  31 H31           -2.1016     3.0517    -0.6038 H       
  32 H32            1.2916     2.7432    -0.0430 H       
  33 H33            2.1451     1.2095     0.2532 H       
  34 H34            2.4695    -0.2295    -0.6703 H       
  35 H35            4.2056    -1.9239    -0.2608 H       
  36 H36           -0.2060    -2.5752     1.7406 H       
  37 H37            1.8014    -4.3268     3.3382 H       
  38 H38            0.5072    -4.8378     2.2281 H       
  39 H39            2.1859    -5.3517     1.9346 H       
  40 H40           -3.0270     5.2968    -1.0023 H       
  41 H41            2.7691     2.9206    -4.2084 H       
  42 H42            4.2629     2.0408    -3.8047 H       
  43 H43            2.7537     1.1441    -4.0990 H       
  44 H44            4.0919     2.1337    -0.5714 H       
  45 H45            4.6208     3.2062    -1.8898 H       
  46 H46            3.2385     3.6673    -0.8677 H       
@<TRIPOS>BOND
   1    1    2 1
   2    1   13 1
   3    1    5 1
   4    2    3 2
   5    2   12 1
   6    3    4 1
   7    3   29 1
   8    4    5 2
   9    4    6 1
  10    6    7 1
  11    6   30 1
  12    7    8 ar
  13    7   11 ar
  14    8    9 ar
  15    8   27 1
  16    9   10 ar
  17    9   23 1
  18   10   22 ar
  19   10   28 1
  20   11   22 ar
  21   11   31 1
  22   12   14 ar
  23   12   18 ar
  24   13   20 1
  25   13   32 1
  26   13   33 1
  27   14   15 ar
  28   14   34 1
  29   15   16 ar
  30   15   35 1
  31   16   17 ar
  32   17   18 ar
  33   17   19 1
  34   18   36 1
  35   19   37 1
  36   19   38 1
  37   19   39 1
  38   20   21 am
  39   20   24 2
  40   21   25 1
  41   21   26 1
  42   22   40 1
  43   25   41 1
  44   25   42 1
  45   25   43 1
  46   26   44 1
  47   26   45 1
  48   26   46 1

#	End of record

