#	Name: ASD01209207
#	Creating user name:	WinNT
#	Creation time:	15. 06. 2019 19:11

#	Modifying user name:	WinNT
#	Modification time:	15. 06. 2019 19:11

#	Program:	/corina/corina34_cracker 3.40 0067  02.08.2006

@<TRIPOS>MOLECULE
ASD01209207
  71   74    0    0    0
SMALL
NO_CHARGES


@<TRIPOS>ATOM
   1 C1            -0.8648     1.5111    -0.4821 C.ar    
   2 C2            -0.8167     0.1542    -0.7658 C.ar    
   3 C3            -1.9411    -0.6379    -0.5805 C.ar    
   4 C4            -3.1169    -0.0757    -0.1116 C.ar    
   5 C5            -3.1696     1.2891     0.1750 C.ar    
   6 C6            -2.0351     2.0804    -0.0073 C.ar    
   7 O7            -1.8886    -1.9667    -0.8599 O.3     
   8 C8            -4.4222     1.8935     0.6757 C.2     
   9 N9            -5.5156     1.1263     0.8560 N.am    
  10 O10           -4.4662     3.0825     0.9248 O.2     
  11 C11           -6.6926     1.6942     1.3264 C.2     
  12 P12          -11.1975     1.2046     0.7646 P.3     
  13 O13          -11.2778     2.6041     0.2900 O.2     
  14 C14          -10.1679     1.1306     2.2672 C.3     
  15 N15           -7.7974     1.0485     1.5343 N.2     
  16 S16           -6.8932     3.3452     1.7226 S.3     
  17 C17           -8.5710     3.0453     2.1683 C.2     
  18 C18           -8.8223     1.7476     1.9849 C.2     
  19 O19            0.2394     2.2821    -0.6649 O.3     
  20 C20            1.4284     1.6196    -1.1001 C.3     
  21 C21           -2.3136    -2.3787    -2.0831 C.ar    
  22 C22           -2.3421    -3.7317    -2.3896 C.ar    
  23 C23           -2.7751    -4.1479    -3.6336 C.ar    
  24 C24           -3.1797    -3.2175    -4.5730 C.ar    
  25 C25           -3.1523    -1.8686    -4.2702 C.ar    
  26 C26           -2.7252    -1.4475    -3.0258 C.ar    
  27 S27           -3.7308    -3.7517    -6.1591 S.o2    
  28 O28           -3.4685    -2.6458    -7.0120 O.2     
  29 O29           -3.0786    -4.9989    -6.3549 O.2     
  30 C30           -5.5178    -3.9922    -5.9600 C.3     
  31 C31            1.4308     1.4678    -2.6336 C.3     
  32 O32            2.5427     2.2274    -3.1364 O.3     
  33 C33            3.5261     2.2844    -2.0809 C.3     
  34 C34            2.6735     2.4904    -0.8031 C.3     
  35 O35          -12.6771     0.6662     1.1008 O.3     
  36 C36          -15.0097     0.1116     0.7977 C.3     
  37 C37          -13.7492     0.6955     0.1565 C.3     
  38 O38          -10.5399     0.2858    -0.3824 O.3     
  39 C39          -10.1981    -0.7448    -2.5414 C.3     
  40 C40          -11.0543     0.2158    -1.7137 C.3     
  41 H41            0.0984    -0.2872    -1.1322 H       
  42 H42           -3.9918    -0.6925     0.0317 H       
  43 H43           -2.0715     3.1369     0.2136 H       
  44 H44           -5.4805     0.1775     0.6572 H       
  45 H45          -10.6581     1.6800     3.0709 H       
  46 H46          -10.0354     0.0908     2.5660 H       
  47 H47           -9.2727     3.7823     2.5301 H       
  48 H48            1.5186     0.6452    -0.6200 H       
  49 H49           -2.0258    -4.4588    -1.6563 H       
  50 H50           -2.7971    -5.2008    -3.8727 H       
  51 H51           -3.4686    -1.1440    -5.0058 H       
  52 H52           -2.7039    -0.3938    -2.7897 H       
  53 H53           -5.9804    -3.0506    -5.6643 H       
  54 H54           -5.9467    -4.3270    -6.9045 H       
  55 H55           -5.6999    -4.7436    -5.1916 H       
  56 H56            1.5477     0.4178    -2.9018 H       
  57 H57            0.4997     1.8563    -3.0460 H       
  58 H58            4.0829     1.3491    -2.0241 H       
  59 H59            4.2021     3.1262    -2.2311 H       
  60 H60            2.3963     3.5380    -0.6851 H       
  61 H61            3.2007     2.1273     0.0791 H       
  62 H62          -15.8275     0.1339     0.0774 H       
  63 H63          -14.8198    -0.9183     1.1001 H       
  64 H64          -15.2798     0.7031     1.6725 H       
  65 H65          -13.9391     1.7253    -0.1458 H       
  66 H66          -13.4792     0.1039    -0.7183 H       
  67 H67          -10.5904    -0.7982    -3.5570 H       
  68 H68           -9.1698    -0.3843    -2.5677 H       
  69 H69          -10.2241    -1.7362    -2.0893 H       
  70 H70          -12.0826    -0.1447    -1.6874 H       
  71 H71          -11.0283     1.2073    -2.1659 H       
@<TRIPOS>BOND
   1    1    2 ar
   2    1   19 1
   3    1    6 ar
   4    2    3 ar
   5    2   41 1
   6    3    4 ar
   7    3    7 1
   8    4    5 ar
   9    4   42 1
  10    5    6 ar
  11    5    8 1
  12    6   43 1
  13    7   21 1
  14    8    9 am
  15    8   10 2
  16    9   11 1
  17    9   44 1
  18   11   15 2
  19   11   16 1
  20   12   13 2
  21   12   35 1
  22   12   38 1
  23   12   14 1
  24   14   18 1
  25   14   45 1
  26   14   46 1
  27   15   18 1
  28   16   17 1
  29   17   18 2
  30   17   47 1
  31   19   20 1
  32   20   31 1
  33   20   34 1
  34   20   48 1
  35   21   22 ar
  36   21   26 ar
  37   22   23 ar
  38   22   49 1
  39   23   24 ar
  40   23   50 1
  41   24   25 ar
  42   24   27 1
  43   25   26 ar
  44   25   51 1
  45   26   52 1
  46   27   28 2
  47   27   29 2
  48   27   30 1
  49   30   53 1
  50   30   54 1
  51   30   55 1
  52   31   32 1
  53   31   56 1
  54   31   57 1
  55   32   33 1
  56   33   34 1
  57   33   58 1
  58   33   59 1
  59   34   60 1
  60   34   61 1
  61   35   37 1
  62   36   37 1
  63   36   62 1
  64   36   63 1
  65   36   64 1
  66   37   65 1
  67   37   66 1
  68   38   40 1
  69   39   40 1
  70   39   67 1
  71   39   68 1
  72   39   69 1
  73   40   70 1
  74   40   71 1

#	End of record

