#	Name: ASD07301016
#	Creating user name:	WinNT
#	Creation time:	15. 06. 2019 21:10

#	Modifying user name:	WinNT
#	Modification time:	15. 06. 2019 21:10

#	Program:	/corina/corina34_cracker 3.40 0067  02.08.2006

@<TRIPOS>MOLECULE
ASD07301016
  50   52    0    0    0
SMALL
NO_CHARGES


@<TRIPOS>ATOM
   1 C1            -0.0178     1.4645     0.0101 C.2     
   2 C2             0.0021    -0.0041     0.0020 C.2     
   3 C3             1.2768    -0.6367    -0.0136 C.2     
   4 C4             2.3782     0.1589    -0.0198 C.2     
   5 N5             2.2579     1.5096    -0.0109 N.pl3   
   6 N6             1.1286     2.1156     0.0026 N.2     
   7 C7            -1.2985     2.1984     0.0202 C.2     
   8 O8            -2.3495     1.5871     0.0219 O.2     
   9 N9            -1.3028     3.5462     0.0275 N.am    
  10 O10           -1.0317    -0.6549     0.0088 O.2     
  11 C11           -2.5738     4.2746     0.0376 C.3     
  12 O12            1.3887    -1.9916    -0.0215 O.3     
  13 C13            2.7109    -2.5333    -0.0370 C.3     
  14 O14           -0.0787     4.2581     0.0256 O.3     
  15 C15            0.4175     4.5574    -1.2807 C.3     
  16 C16            3.4253     2.2805    -0.0170 C.ar    
  17 C17            3.6347     3.2355     0.9738 C.ar    
  18 C18            4.7887     3.9960     0.9658 C.ar    
  19 C19            5.7372     3.8070    -0.0294 C.ar    
  20 C20            5.5280     2.8551    -1.0174 C.ar    
  21 C21            4.3791     2.0898    -1.0084 C.ar    
  22 F22            2.7106     3.4191     1.9420 F       
  23 O23            6.8717     4.5551    -0.0367 O.3     
  24 C24            7.8050     4.3079    -1.0903 C.3     
  25 C25            8.9915     5.2240    -0.9355 C.ar    
  26 C26           10.0822     4.8219    -0.1875 C.ar    
  27 C27           11.1706     5.6622    -0.0455 C.ar    
  28 C28           11.1684     6.9045    -0.6519 C.ar    
  29 C29           10.0780     7.3062    -1.4007 C.ar    
  30 C30            8.9915     6.4641    -1.5462 C.ar    
  31 H31            3.3607    -0.2895    -0.0316 H       
  32 H32           -2.8841     4.4496     1.0677 H       
  33 H33           -2.4489     5.2302    -0.4717 H       
  34 H34           -3.3340     3.6859    -0.4759 H       
  35 H35            3.2333    -2.1911    -0.9304 H       
  36 H36            3.2506    -2.2000     0.8494 H       
  37 H37            2.6575    -3.6220    -0.0420 H       
  38 H38           -0.3106     5.1680    -1.8148 H       
  39 H39            1.3571     5.1033    -1.1961 H       
  40 H40            0.5843     3.6294    -1.8274 H       
  41 H41            4.9521     4.7375     1.7338 H       
  42 H42            6.2670     2.7096    -1.7914 H       
  43 H43            4.2197     1.3460    -1.7751 H       
  44 H44            8.1381     3.2710    -1.0448 H       
  45 H45            7.3255     4.4936    -2.0514 H       
  46 H46           10.0839     3.8514     0.2862 H       
  47 H47           12.0224     5.3484     0.5395 H       
  48 H48           12.0184     7.5613    -0.5404 H       
  49 H49           10.0762     8.2769    -1.8741 H       
  50 H50            8.1412     6.7765    -2.1343 H       
@<TRIPOS>BOND
   1    1    2 1
   2    1    6 2
   3    1    7 1
   4    2    3 1
   5    2   10 2
   6    3    4 2
   7    3   12 1
   8    4    5 1
   9    4   31 1
  10    5    6 1
  11    5   16 1
  12    7    8 2
  13    7    9 am
  14    9   11 1
  15    9   14 1
  16   11   32 1
  17   11   33 1
  18   11   34 1
  19   12   13 1
  20   13   35 1
  21   13   36 1
  22   13   37 1
  23   14   15 1
  24   15   38 1
  25   15   39 1
  26   15   40 1
  27   16   17 ar
  28   16   21 ar
  29   17   18 ar
  30   17   22 1
  31   18   19 ar
  32   18   41 1
  33   19   20 ar
  34   19   23 1
  35   20   21 ar
  36   20   42 1
  37   21   43 1
  38   23   24 1
  39   24   25 1
  40   24   44 1
  41   24   45 1
  42   25   26 ar
  43   25   30 ar
  44   26   27 ar
  45   26   46 1
  46   27   28 ar
  47   27   47 1
  48   28   29 ar
  49   28   48 1
  50   29   30 ar
  51   29   49 1
  52   30   50 1

#	End of record

