#	Name: ASD04590092
#	Creating user name:	WinNT
#	Creation time:	15. 06. 2019 20:50

#	Modifying user name:	WinNT
#	Modification time:	15. 06. 2019 20:50

#	Program:	/corina/corina34_cracker 3.40 0067  02.08.2006

@<TRIPOS>MOLECULE
ASD04590092
  74   79    0    0    0
SMALL
NO_CHARGES


@<TRIPOS>ATOM
   1 N1            -2.6677    -2.9427     0.3693 N.ar    
   2 C2            -1.4690    -2.3739     0.3794 C.ar    
   3 N3            -0.3511    -3.0806     0.4211 N.ar    
   4 C4            -0.3911    -4.4093     0.4552 C.ar    
   5 C5            -1.6496    -5.0439     0.4460 C.ar    
   6 C6            -2.7974    -4.2588     0.4012 C.ar    
   7 N7             0.5821    -5.3765     0.5007 N.pl3   
   8 C8             0.0106    -6.6370     0.5221 C.ar    
   9 C9            -1.3875    -6.4881     0.4894 C.ar    
  10 C10            0.5388    -7.9207     0.5664 C.ar    
  11 N11           -0.2550    -8.9721     0.5770 N.ar    
  12 C12           -1.5718    -8.8666     0.5470 C.ar    
  13 C13           -2.1844    -7.6322     0.5036 C.ar    
  14 C14            2.0228    -5.1118     0.5230 C.3     
  15 C15            2.4363    -4.3386    -0.7416 C.3     
  16 C16            3.0265    -2.9958    -0.2638 C.3     
  17 C17            3.4896    -3.2791     1.1869 C.3     
  18 C18            2.3763    -4.2119     1.7250 C.3     
  19 N19           -1.3849    -0.9918     0.3448 N.pl3   
  20 C20           -2.5407    -0.2264     0.1870 C.ar    
  21 N21           -3.7032    -0.8185    -0.0309 N.ar    
  22 N22           -4.7910    -0.1543    -0.1819 N.ar    
  23 C23           -4.8227     1.1673    -0.1297 C.ar    
  24 C24           -3.6452     1.8820     0.0960 C.ar    
  25 C25           -2.4736     1.1655     0.2645 C.ar    
  26 N26           -6.0285     1.8441    -0.3001 N.3     
  27 C27           -5.9356     2.8173    -1.3966 C.3     
  28 C28           -7.3231     3.4072    -1.6704 C.3     
  29 N29           -7.8613     3.9403    -0.4097 N.am    
  30 C30           -7.8602     3.0653     0.7725 C.3     
  31 C31           -6.4516     2.4888     0.9502 C.3     
  32 C32           -8.2440     3.8758     2.0122 C.3     
  33 O33           -8.2312     6.0207    -1.3990 O.3     
  34 C34           -8.7716     7.3604    -1.2521 C.3     
  35 C35           -8.0602     8.0739    -0.1007 C.3     
  36 C36           -8.5544     8.1429    -2.5488 C.3     
  37 C37          -10.2695     7.2761    -0.9521 C.3     
  38 C38           -8.3422     5.1973    -0.3395 C.2     
  39 O39           -8.8760     5.5876     0.6799 O.2     
  40 H40           -3.7761    -4.7154     0.3927 H       
  41 H41            1.6097    -8.0583     0.5921 H       
  42 H42           -2.1773    -9.7608     0.5574 H       
  43 H43           -3.2612    -7.5530     0.4793 H       
  44 H44            2.5737    -6.0504     0.5836 H       
  45 H45            3.1885    -4.9016    -1.2942 H       
  46 H46            1.5650    -4.1604    -1.3718 H       
  47 H47            3.8745    -2.7090    -0.8857 H       
  48 H48            2.2632    -2.2179    -0.2755 H       
  49 H49            4.4545    -3.7862     1.1923 H       
  50 H50            3.5337    -2.3564     1.7655 H       
  51 H51            1.5079    -3.6303     2.0345 H       
  52 H52            2.7496    -4.8125     2.5545 H       
  53 H53           -0.5225    -0.5561     0.4302 H       
  54 H54           -3.6492     2.9610     0.1419 H       
  55 H55           -1.5344     1.6684     0.4419 H       
  56 H56           -5.2494     3.6165    -1.1164 H       
  57 H57           -5.5682     2.3199    -2.2942 H       
  58 H58           -7.2414     4.2107    -2.4024 H       
  59 H59           -7.9839     2.6279    -2.0502 H       
  60 H60           -8.5726     2.2532     0.6276 H       
  61 H61           -6.4584     1.7532     1.7546 H       
  62 H62           -5.7582     3.2926     1.1977 H       
  63 H63           -9.2898     4.1746     1.9414 H       
  64 H64           -8.0999     3.2659     2.9040 H       
  65 H65           -7.6157     4.7643     2.0742 H       
  66 H66           -6.9930     8.1339    -0.3144 H       
  67 H67           -8.4658     9.0796     0.0096 H       
  68 H68           -8.2149     7.5164     0.8231 H       
  69 H69           -9.0612     7.6346    -3.3691 H       
  70 H70           -8.9600     9.1486    -2.4386 H       
  71 H71           -7.4872     8.2029    -2.7626 H       
  72 H72          -10.4242     6.7187    -0.0283 H       
  73 H73          -10.6751     8.2818    -0.8419 H       
  74 H74          -10.7763     6.7679    -1.7724 H       
@<TRIPOS>BOND
   1    1    2 ar
   2    1    6 ar
   3    2    3 ar
   4    2   19 1
   5    3    4 ar
   6    4    5 ar
   7    4    7 1
   8    5    6 ar
   9    5    9 1
  10    6   40 1
  11    7    8 1
  12    7   14 1
  13    8    9 ar
  14    8   10 ar
  15    9   13 ar
  16   10   11 ar
  17   10   41 1
  18   11   12 ar
  19   12   13 ar
  20   12   42 1
  21   13   43 1
  22   14   15 1
  23   14   18 1
  24   14   44 1
  25   15   16 1
  26   15   45 1
  27   15   46 1
  28   16   17 1
  29   16   47 1
  30   16   48 1
  31   17   18 1
  32   17   49 1
  33   17   50 1
  34   18   51 1
  35   18   52 1
  36   19   20 1
  37   19   53 1
  38   20   21 ar
  39   20   25 ar
  40   21   22 ar
  41   22   23 ar
  42   23   24 ar
  43   23   26 1
  44   24   25 ar
  45   24   54 1
  46   25   55 1
  47   26   27 1
  48   26   31 1
  49   27   28 1
  50   27   56 1
  51   27   57 1
  52   28   29 1
  53   28   58 1
  54   28   59 1
  55   29   30 1
  56   29   38 am
  57   30   31 1
  58   30   32 1
  59   30   60 1
  60   31   61 1
  61   31   62 1
  62   32   63 1
  63   32   64 1
  64   32   65 1
  65   33   34 1
  66   33   38 1
  67   34   35 1
  68   34   36 1
  69   34   37 1
  70   35   66 1
  71   35   67 1
  72   35   68 1
  73   36   69 1
  74   36   70 1
  75   36   71 1
  76   37   72 1
  77   37   73 1
  78   37   74 1
  79   38   39 2

#	End of record

