#	Name: ASD03092779
#	Creating user name:	WinNT
#	Creation time:	15. 06. 2019 20:33

#	Modifying user name:	WinNT
#	Modification time:	15. 06. 2019 20:33

#	Program:	/corina/corina34_cracker 3.40 0067  02.08.2006

@<TRIPOS>MOLECULE
ASD03092779
  56   60    0    0    0
SMALL
NO_CHARGES


@<TRIPOS>ATOM
   1 C1             0.6809     1.4936     0.3354 C.3     
   2 C2             0.6028    -0.0333     0.2750 C.3     
   3 C3             0.9709    -0.5007    -1.1096 C.2     
   4 O4             1.2666     0.3082    -1.9644 O.2     
   5 C5             0.9716    -1.9315    -1.4235 C.2     
   6 C6             0.6356    -3.0327    -0.5154 C.2     
   7 C7             0.7732    -4.1758    -1.2344 C.2     
   8 C8             0.5370    -5.5451    -0.7279 C.ar    
   9 C9             0.5767    -5.8020     0.6428 C.ar    
  10 C10            0.3582    -7.0799     1.1110 C.ar    
  11 C11            0.0977    -8.1199     0.2252 C.ar    
  12 O12           -0.0933    -9.3683     0.7317 O.3     
  13 C13           -0.7485   -10.3295    -0.1035 C.3     
  14 C14           -0.1636   -10.1938    -1.5146 C.3     
  15 C15            1.0287   -11.0701    -1.8852 C.3     
  16 C16           -0.3507   -11.3566    -2.4841 C.3     
  17 O17           -0.2150    -8.8625    -2.0351 O.3     
  18 C18            0.0516    -7.8667    -1.1413 C.ar    
  19 C19            0.2676    -6.5848    -1.6180 C.ar    
  20 N20            1.1675    -3.8518    -2.5106 N.pl3   
  21 C21            1.2836    -2.5157    -2.6383 C.2     
  22 C22            1.6887    -1.7820    -3.8908 C.3     
  23 C23            1.4080    -4.7779    -3.5339 C.ar    
  24 C24            2.4923    -5.6412    -3.4502 C.ar    
  25 C25            2.7268    -6.5531    -4.4607 C.ar    
  26 C26            1.8830    -6.6069    -5.5549 C.ar    
  27 C27            0.8025    -5.7483    -5.6414 C.ar    
  28 C28            0.5592    -4.8383    -4.6312 C.ar    
  29 S29            2.1855    -7.7717    -6.8419 S.o2    
  30 N30            1.3668    -9.1572    -6.4515 N.am    
  31 O31            1.5617    -7.2521    -8.0082 O.2     
  32 O32            3.5686    -8.0911    -6.7771 O.2     
  33 H33            1.6957     1.8150     0.1012 H       
  34 H34           -0.0122     1.9217    -0.3888 H       
  35 H35            0.4147     1.8316     1.3369 H       
  36 H36            1.2959    -0.4614     0.9993 H       
  37 H37           -0.4120    -0.3548     0.5093 H       
  38 H38            0.3384    -2.9506     0.5197 H       
  39 H39            0.7790    -4.9997     1.3370 H       
  40 H40            0.3898    -7.2749     2.1728 H       
  41 H41           -0.5670   -11.3347     0.2768 H       
  42 H42           -1.8199   -10.1300    -0.1266 H       
  43 H43            1.7840   -10.6405    -2.5433 H       
  44 H44            1.4018   -11.7593    -1.1276 H       
  45 H45           -0.8850   -12.2344    -2.1204 H       
  46 H46           -0.5028   -11.1156    -3.5361 H       
  47 H47            0.2312    -6.3906    -2.6798 H       
  48 H48            2.7724    -1.6670    -3.9101 H       
  49 H49            1.3679    -2.3497    -4.7642 H       
  50 H50            1.2187    -0.7986    -3.9039 H       
  51 H51            3.1519    -5.5994    -2.5961 H       
  52 H52            3.5702    -7.2246    -4.3963 H       
  53 H53            0.1457    -5.7922    -6.4976 H       
  54 H54           -0.2875    -4.1712    -4.6970 H       
  55 H55            0.8474    -9.1995    -5.6335 H       
  56 H56            1.4067    -9.9266    -7.0410 H       
@<TRIPOS>BOND
   1    1    2 1
   2    1   33 1
   3    1   34 1
   4    1   35 1
   5    2    3 1
   6    2   36 1
   7    2   37 1
   8    3    4 2
   9    3    5 1
  10    5   21 2
  11    5    6 1
  12    6    7 2
  13    6   38 1
  14    7    8 1
  15    7   20 1
  16    8   19 ar
  17    8    9 ar
  18    9   10 ar
  19    9   39 1
  20   10   11 ar
  21   10   40 1
  22   11   18 ar
  23   11   12 1
  24   12   13 1
  25   13   14 1
  26   13   41 1
  27   13   42 1
  28   14   16 1
  29   14   15 1
  30   14   17 1
  31   15   16 1
  32   15   43 1
  33   15   44 1
  34   16   45 1
  35   16   46 1
  36   17   18 1
  37   18   19 ar
  38   19   47 1
  39   20   21 1
  40   20   23 1
  41   21   22 1
  42   22   48 1
  43   22   49 1
  44   22   50 1
  45   23   28 ar
  46   23   24 ar
  47   24   25 ar
  48   24   51 1
  49   25   26 ar
  50   25   52 1
  51   26   27 ar
  52   26   29 1
  53   27   28 ar
  54   27   53 1
  55   28   54 1
  56   29   30 am
  57   29   31 2
  58   29   32 2
  59   30   55 1
  60   30   56 1

#	End of record

