#	Name: ASD04170005
#	Creating user name:	WinNT
#	Creation time:	15. 06. 2019 20:48

#	Modifying user name:	WinNT
#	Modification time:	15. 06. 2019 20:48

#	Program:	/corina/corina34_cracker 3.40 0067  02.08.2006

@<TRIPOS>MOLECULE
ASD04170005
  36   38    0    0    0
SMALL
NO_CHARGES


@<TRIPOS>ATOM
   1 Br1            0.0021    -0.0041     0.0020 Br      
   2 C2            -0.0236     1.8867     0.0124 C.ar    
   3 C3             1.1645     2.5947     0.0049 C.ar    
   4 C4             1.1453     3.9769     0.0120 C.ar    
   5 C5            -0.0611     4.6514     0.0267 C.ar    
   6 C6            -1.2490     3.9441     0.0342 C.ar    
   7 C7            -1.2308     2.5623     0.0218 C.ar    
   8 C8            -2.5257     1.7915     0.0300 C.3     
   9 N9            -2.7787     1.2448    -1.3098 N.3     
  10 C10           -4.0358     0.4853    -1.3397 C.3     
  11 C11           -3.7786    -0.9511    -0.8751 C.3     
  12 N12           -4.1387    -1.8833    -1.9519 N.3     
  13 C13           -3.3089    -1.6593    -3.1437 C.3     
  14 C14           -3.5523    -0.2430    -3.6726 C.3     
  15 C15           -4.5820     0.4517    -2.7726 C.3     
  16 C16           -5.8761    -0.3718    -2.7837 C.3     
  17 C17           -5.5676    -1.7845    -2.2799 C.3     
  18 H18            2.1072     2.0677    -0.0062 H       
  19 H19            2.0730     4.5298     0.0065 H       
  20 H20           -0.0757     5.7313     0.0326 H       
  21 H21           -2.1914     4.4716     0.0457 H       
  22 H22           -2.4578     0.9748     0.7488 H       
  23 H23           -3.3425     2.4562     0.3114 H       
  24 H24           -2.7819     1.9767    -2.0043 H       
  25 H25           -4.7637     0.9577    -0.6802 H       
  26 H26           -2.7235    -1.0702    -0.6287 H       
  27 H27           -4.3843    -1.1622     0.0062 H       
  28 H28           -2.2571    -1.7738    -2.8813 H       
  29 H29           -3.5733    -2.3851    -3.9127 H       
  30 H30           -2.6176     0.3177    -3.6585 H       
  31 H31           -3.9341    -0.2945    -4.6922 H       
  32 H32           -4.7663     1.4658    -3.1274 H       
  33 H33           -6.6124     0.0963    -2.1304 H       
  34 H34           -6.2672    -0.4237    -3.7998 H       
  35 H35           -5.8136    -2.5092    -3.0561 H       
  36 H36           -6.1604    -1.9903    -1.3887 H       
@<TRIPOS>BOND
   1    1    2 1
   2    2    3 ar
   3    2    7 ar
   4    3    4 ar
   5    3   18 1
   6    4    5 ar
   7    4   19 1
   8    5    6 ar
   9    5   20 1
  10    6    7 ar
  11    6   21 1
  12    7    8 1
  13    8    9 1
  14    8   22 1
  15    8   23 1
  16    9   10 1
  17    9   24 1
  18   10   11 1
  19   10   15 1
  20   10   25 1
  21   11   12 1
  22   11   26 1
  23   11   27 1
  24   12   13 1
  25   12   17 1
  26   13   14 1
  27   13   28 1
  28   13   29 1
  29   14   15 1
  30   14   30 1
  31   14   31 1
  32   15   16 1
  33   15   32 1
  34   16   17 1
  35   16   33 1
  36   16   34 1
  37   17   35 1
  38   17   36 1

#	End of record

