#	Name: ASD03160005
#	Creating user name:	WinNT
#	Creation time:	15. 06. 2019 20:33

#	Modifying user name:	WinNT
#	Modification time:	15. 06. 2019 20:33

#	Program:	/corina/corina34_cracker 3.40 0067  02.08.2006

@<TRIPOS>MOLECULE
ASD03160005
  50   51    0    0    0
SMALL
NO_CHARGES


@<TRIPOS>ATOM
   1 C1             2.0134     1.9133    -0.3530 C.3     
   2 C2             1.4797     0.4904    -0.1754 C.3     
   3 C3             1.7982    -0.3225    -1.4037 C.2     
   4 O4             2.3909     0.1839    -2.3260 O.2     
   5 C5             1.3770    -1.7674    -1.4811 C.3     
   6 C6             1.6620    -2.3005    -2.8615 C.ar    
   7 C7             1.5390    -1.4720    -3.9613 C.ar    
   8 C8             1.8003    -1.9610    -5.2276 C.ar    
   9 C9             2.1850    -3.2783    -5.3941 C.ar    
  10 C10            2.3089    -4.1065    -4.2942 C.ar    
  11 C11            2.0517    -3.6163    -3.0275 C.ar    
  12 C12            2.1465    -2.5701    -0.4639 C.ar    
  13 C13            3.5223    -2.6676    -0.5576 C.ar    
  14 C14            4.2281    -3.4040     0.3754 C.ar    
  15 C15            3.5583    -4.0424     1.4023 C.ar    
  16 C16            2.1827    -3.9441     1.4965 C.ar    
  17 C17            1.4772    -3.2042     0.5661 C.ar    
  18 C18           -0.1211    -1.8782    -1.1907 C.3     
  19 C19           -0.8946    -0.9687    -2.1475 C.3     
  20 N20           -0.7626    -1.4762    -3.5197 N.3     
  21 C21           -1.5104    -2.7289    -3.6919 C.3     
  22 C22           -1.1925    -0.4678    -4.4976 C.3     
  23 C23           -2.3721    -0.9499    -1.7506 C.3     
  24 H24            3.0934     1.8809    -0.4973 H       
  25 H25            1.5441     2.3713    -1.2236 H       
  26 H26            1.7831     2.5013     0.5354 H       
  27 H27            1.9490     0.0324     0.6953 H       
  28 H28            0.3998     0.5228    -0.0311 H       
  29 H29            1.2385    -0.4429    -3.8313 H       
  30 H30            1.7036    -1.3140    -6.0869 H       
  31 H31            2.3885    -3.6605    -6.3835 H       
  32 H32            2.6091    -5.1357    -4.4243 H       
  33 H33            2.1485    -4.2633    -2.1682 H       
  34 H34            4.0456    -2.1688    -1.3600 H       
  35 H35            5.3029    -3.4808     0.3017 H       
  36 H36            4.1097    -4.6183     2.1308 H       
  37 H37            1.6593    -4.4432     2.2987 H       
  38 H38            0.4025    -3.1274     0.6397 H       
  39 H39           -0.4429    -2.9102    -1.3305 H       
  40 H40           -0.3154    -1.5731    -0.1625 H       
  41 H41           -0.4910     0.0424    -2.0937 H       
  42 H42           -2.5756    -2.5368    -3.5630 H       
  43 H43           -1.3309    -3.1247    -4.6915 H       
  44 H44           -1.1795    -3.4546    -2.9489 H       
  45 H45           -0.5755     0.4248    -4.3942 H       
  46 H46           -1.0845    -0.8695    -5.5051 H       
  47 H47           -2.2365    -0.2105    -4.3190 H       
  48 H48           -2.7757    -1.9610    -1.8044 H       
  49 H49           -2.4700    -0.5733    -0.7324 H       
  50 H50           -2.9232    -0.3019    -2.4322 H       
@<TRIPOS>BOND
   1    1    2 1
   2    1   24 1
   3    1   25 1
   4    1   26 1
   5    2    3 1
   6    2   27 1
   7    2   28 1
   8    3    4 2
   9    3    5 1
  10    5    6 1
  11    5   12 1
  12    5   18 1
  13    6    7 ar
  14    6   11 ar
  15    7    8 ar
  16    7   29 1
  17    8    9 ar
  18    8   30 1
  19    9   10 ar
  20    9   31 1
  21   10   11 ar
  22   10   32 1
  23   11   33 1
  24   12   13 ar
  25   12   17 ar
  26   13   14 ar
  27   13   34 1
  28   14   15 ar
  29   14   35 1
  30   15   16 ar
  31   15   36 1
  32   16   17 ar
  33   16   37 1
  34   17   38 1
  35   18   19 1
  36   18   39 1
  37   18   40 1
  38   19   20 1
  39   19   23 1
  40   19   41 1
  41   20   21 1
  42   20   22 1
  43   21   42 1
  44   21   43 1
  45   21   44 1
  46   22   45 1
  47   22   46 1
  48   22   47 1
  49   23   48 1
  50   23   49 1
  51   23   50 1

#	End of record

