#	Name: ASD05380036
#	Creating user name:	WinNT
#	Creation time:	15. 06. 2019 20:59

#	Modifying user name:	WinNT
#	Modification time:	15. 06. 2019 20:59

#	Program:	/corina/corina34_cracker 3.40 0067  02.08.2006

@<TRIPOS>MOLECULE
ASD05380036
  57   62    0    0    0
SMALL
NO_CHARGES


@<TRIPOS>ATOM
   1 C1            -0.0404     1.4607    -0.2390 C.ar    
   2 C2             0.0121     0.0577    -0.0805 C.ar    
   3 C3             1.1246     2.1771    -0.5047 C.ar    
   4 C4             2.3241     1.5073    -0.6110 C.ar    
   5 C5             2.3792     0.1286    -0.4563 C.ar    
   6 C6             1.2395    -0.5979    -0.1924 C.ar    
   7 C7             1.0732     3.6736    -0.6749 C.3     
   8 N8            -1.1349    -0.6189     0.1782 N.2     
   9 C9            -2.2762    -0.0088     0.2831 C.2     
  10 N10           -2.4199     1.3372     0.1455 N.am    
  11 C11           -1.3470     2.1219    -0.1088 C.2     
  12 C12           -3.6888     1.9163     0.2734 C.ar    
  13 C13           -4.0188     2.6220     1.4229 C.ar    
  14 C14           -4.6173     1.7910    -0.7515 C.ar    
  15 C15           -5.8675     2.3637    -0.6226 C.ar    
  16 C16           -6.1948     3.0617     0.5254 C.ar    
  17 C17           -5.2707     3.1923     1.5458 C.ar    
  18 C18           -3.5041    -0.8334     0.5714 C.3     
  19 N19           -3.4232    -2.1013    -0.1580 N.pl3   
  20 C20           -4.5797    -2.7857    -0.4858 C.ar    
  21 N21           -5.7738    -2.3079    -0.1471 N.ar    
  22 O22           -1.4608     3.3274    -0.2342 O.2     
  23 C23           -4.5230    -3.9983    -1.1892 C.ar    
  24 C24           -5.7279    -4.6559    -1.4993 C.ar    
  25 N25           -6.8746    -4.0995    -1.1124 N.ar    
  26 C26           -6.8806    -2.9580    -0.4586 C.ar    
  27 C27           -3.4519    -4.8317    -1.7321 C.2     
  28 C28           -4.0399    -5.8919    -2.3102 C.2     
  29 N29           -5.4012    -5.7979    -2.1775 N.pl3   
  30 C30           -3.5880    -1.1094     2.0506 C.ar    
  31 C31           -4.5215    -0.4467     2.8254 C.ar    
  32 C32           -4.5984    -0.6998     4.1822 C.ar    
  33 C33           -3.7421    -1.6158     4.7641 C.ar    
  34 C34           -2.8092    -2.2791     3.9891 C.ar    
  35 C35           -2.7352    -2.0292     2.6315 C.ar    
  36 H36            3.2292     2.0595    -0.8169 H       
  37 H37            3.3278    -0.3803    -0.5436 H       
  38 H38            1.2949    -1.6699    -0.0732 H       
  39 H39            1.1052     4.1519     0.3040 H       
  40 H40            1.9272     4.0014    -1.2677 H       
  41 H41            0.1499     3.9498    -1.1842 H       
  42 H42           -3.2975     2.7244     2.2202 H       
  43 H43           -4.3620     1.2466    -1.6486 H       
  44 H44           -6.5901     2.2666    -1.4193 H       
  45 H45           -7.1728     3.5092     0.6236 H       
  46 H46           -5.5294     3.7377     2.4414 H       
  47 H47           -4.3918    -0.2870     0.2529 H       
  48 H48           -2.5586    -2.4610    -0.4111 H       
  49 H49           -7.8296    -2.5350    -0.1642 H       
  50 H50           -2.3917    -4.6330    -1.6789 H       
  51 H51           -3.5185    -6.6975    -2.8057 H       
  52 H52           -6.0390    -6.4464    -2.5145 H       
  53 H53           -5.1905     0.2689     2.3708 H       
  54 H54           -5.3273    -0.1816     4.7878 H       
  55 H55           -3.8017    -1.8130     5.8243 H       
  56 H56           -2.1400    -2.9945     4.4438 H       
  57 H57           -2.0064    -2.5475     2.0260 H       
@<TRIPOS>BOND
   1    1    2 ar
   2    1    3 ar
   3    1   11 1
   4    2    8 1
   5    2    6 ar
   6    3    4 ar
   7    3    7 1
   8    4    5 ar
   9    4   36 1
  10    5    6 ar
  11    5   37 1
  12    6   38 1
  13    7   39 1
  14    7   40 1
  15    7   41 1
  16    8    9 2
  17    9   10 1
  18    9   18 1
  19   10   11 am
  20   10   12 1
  21   11   22 2
  22   12   13 ar
  23   12   14 ar
  24   13   17 ar
  25   13   42 1
  26   14   15 ar
  27   14   43 1
  28   15   16 ar
  29   15   44 1
  30   16   17 ar
  31   16   45 1
  32   17   46 1
  33   18   19 1
  34   18   30 1
  35   18   47 1
  36   19   20 1
  37   19   48 1
  38   20   21 ar
  39   20   23 ar
  40   21   26 ar
  41   23   24 ar
  42   23   27 1
  43   24   25 ar
  44   24   29 1
  45   25   26 ar
  46   26   49 1
  47   27   28 2
  48   27   50 1
  49   28   29 1
  50   28   51 1
  51   29   52 1
  52   30   31 ar
  53   30   35 ar
  54   31   32 ar
  55   31   53 1
  56   32   33 ar
  57   32   54 1
  58   33   34 ar
  59   33   55 1
  60   34   35 ar
  61   34   56 1
  62   35   57 1

#	End of record

