#	Name: ASD01730092
#	Creating user name:	WinNT
#	Creation time:	15. 06. 2019 19:23

#	Modifying user name:	WinNT
#	Modification time:	15. 06. 2019 19:23

#	Program:	/corina/corina34_cracker 3.40 0067  02.08.2006

@<TRIPOS>MOLECULE
ASD01730092
  41   42    0    0    0
SMALL
NO_CHARGES


@<TRIPOS>ATOM
   1 C1             0.0273     1.8745     0.1818 C.2     
   2 C2             0.6754     0.5607     0.5352 C.3     
   3 N3             0.7499     2.9647     0.1179 N.2     
   4 N4            -1.3083     1.9270    -0.0764 N.pl3   
   5 S5             4.1563     4.0795     1.6314 S.3     
   6 C6             2.8394     4.2044     0.3833 C.3     
   7 C7             2.0730     2.9102     0.3585 C.2     
   8 N8             2.6042     1.7535     0.5537 N.2     
   9 C9             3.9110     1.4811     0.8067 C.ar    
  10 C10            4.7800     2.4579     1.3200 C.ar    
  11 C11            4.4099     0.1988     0.5543 C.ar    
  12 C12            5.7320    -0.0940     0.8122 C.ar    
  13 C13            6.5828     0.8772     1.3237 C.ar    
  14 C14            6.1042     2.1556     1.5766 C.ar    
  15 O15            7.8840     0.5762     1.5763 O.3     
  16 C16            8.3081    -0.7585     1.2921 C.3     
  17 F17            8.1168    -1.0291    -0.0671 F       
  18 F18            9.6642    -0.8941     1.6082 F       
  19 F19            7.5587    -1.6588     2.0569 F       
  20 C20           -1.9618     3.2197    -0.2951 C.3     
  21 C21           -1.9201     3.5667    -1.7847 C.3     
  22 C22           -2.0920     0.6907    -0.1355 C.3     
  23 C23           -2.6315     0.3616     1.2579 C.3     
  24 H24            1.1581     0.6439     1.5089 H       
  25 H25           -0.0837    -0.2207     0.5716 H       
  26 H26            1.4205     0.3085    -0.2194 H       
  27 H27            2.1672     5.0227     0.6417 H       
  28 H28            3.2806     4.3863    -0.5967 H       
  29 H29            3.7573    -0.5643     0.1565 H       
  30 H30            6.1091    -1.0866     0.6152 H       
  31 H31            6.7649     2.9122     1.9732 H       
  32 H32           -2.9988     3.1632     0.0359 H       
  33 H33           -1.4408     3.9909     0.2723 H       
  34 H34           -0.8832     3.6232    -2.1157 H       
  35 H35           -2.4412     2.7956    -2.3521 H       
  36 H36           -2.4064     4.5286    -1.9474 H       
  37 H37           -2.9252     0.8213    -0.8262 H       
  38 H38           -1.4578    -0.1254    -0.4816 H       
  39 H39           -1.7984     0.2310     1.9485 H       
  40 H40           -3.2658     1.1777     1.6040 H       
  41 H41           -3.2146    -0.5582     1.2139 H       
@<TRIPOS>BOND
   1    1    2 1
   2    1    3 2
   3    1    4 1
   4    2   24 1
   5    2   25 1
   6    2   26 1
   7    3    7 1
   8    4   20 1
   9    4   22 1
  10    5    6 1
  11    5   10 1
  12    6    7 1
  13    6   27 1
  14    6   28 1
  15    7    8 2
  16    8    9 1
  17    9   10 ar
  18    9   11 ar
  19   10   14 ar
  20   11   12 ar
  21   11   29 1
  22   12   13 ar
  23   12   30 1
  24   13   14 ar
  25   13   15 1
  26   14   31 1
  27   15   16 1
  28   16   17 1
  29   16   18 1
  30   16   19 1
  31   20   21 1
  32   20   32 1
  33   20   33 1
  34   21   34 1
  35   21   35 1
  36   21   36 1
  37   22   23 1
  38   22   37 1
  39   22   38 1
  40   23   39 1
  41   23   40 1
  42   23   41 1

#	End of record

