#	Name: ASD01917176
#	Creating user name:	WinNT
#	Creation time:	15. 06. 2019 20:08

#	Modifying user name:	WinNT
#	Modification time:	15. 06. 2019 20:08

#	Program:	/corina/corina34_cracker 3.40 0067  02.08.2006

@<TRIPOS>MOLECULE
ASD01917176
  68   72    0    0    0
SMALL
NO_CHARGES


@<TRIPOS>ATOM
   1 C1            -0.0161     1.3075     0.0930 C.2     
   2 N2            -0.0006     0.0184    -0.1698 N.2     
   3 N3            -1.3370    -0.4125    -0.1793 N.pl3   
   4 C4            -2.0927     0.6783     0.0864 C.2     
   5 N5            -1.2838     1.7030     0.2529 N.2     
   6 C6             1.1796     2.1801     0.2010 C.ar    
   7 C7             1.0322     3.5361     0.4850 C.ar    
   8 C8             2.4538     1.6450     0.0243 C.ar    
   9 C9             3.5623     2.4609     0.1262 C.ar    
  10 C10            3.4100     3.8075     0.4032 C.ar    
  11 C11            4.6241     4.6934     0.5134 C.3     
  12 C12           -1.8182    -1.7737    -0.4282 C.3     
  13 C13           -1.8552    -2.5386     0.8697 C.2     
  14 N14           -2.2682    -3.8215     0.8843 N.am    
  15 O15           -1.5133    -1.9998     1.9011 O.2     
  16 C16           -2.3120    -4.5861     2.1400 C.3     
  17 C17           -3.6999    -5.2215     2.2748 C.3     
  18 N18           -3.9994    -5.9977     1.0641 N.3     
  19 C19           -4.0602    -5.1329    -0.1218 C.3     
  20 C20           -2.6928    -4.4920    -0.3539 C.3     
  21 C21           -5.1738    -6.7185     1.2140 C.ar    
  22 N22           -5.8689    -6.6496     2.3475 N.ar    
  23 C23           -6.9860    -7.3314     2.4969 C.ar    
  24 N24           -7.4623    -8.1052     1.5425 N.ar    
  25 C25           -6.8263    -8.2274     0.3808 C.ar    
  26 C26           -5.6472    -7.5210     0.1792 C.ar    
  27 C27           -3.5694     0.7120     0.1788 C.ar    
  28 C28           -4.2523     1.9206     0.0414 C.ar    
  29 C29           -5.6292     1.9453     0.1280 C.ar    
  30 C30           -6.3323     0.7748     0.3505 C.ar    
  31 C31           -5.6607    -0.4268     0.4881 C.ar    
  32 C32           -4.2844    -0.4656     0.3978 C.ar    
  33 C33            2.1476     4.3429     0.5848 C.ar    
  34 O34           -7.3244    -9.0258    -0.5947 O.3     
  35 C35           -8.5444    -9.7135    -0.3104 C.3     
  36 C36            4.5424     5.8034    -0.5364 C.3     
  37 C37            4.6767     5.3153     1.9103 C.3     
  38 H38            0.0469     3.9552     0.6266 H       
  39 H39            2.5739     0.5936    -0.1917 H       
  40 H40            4.5506     2.0471    -0.0102 H       
  41 H41            5.5231     4.1002     0.3457 H       
  42 H42           -2.8206    -1.7325    -0.8544 H       
  43 H43           -1.1470    -2.2744    -1.1260 H       
  44 H44           -1.5521    -5.3673     2.1196 H       
  45 H45           -2.1318    -3.9179     2.9821 H       
  46 H46           -3.7154    -5.8808     3.1426 H       
  47 H47           -4.4479    -4.4384     2.3991 H       
  48 H48           -4.3369    -5.7279    -0.9921 H       
  49 H49           -4.8031    -4.3510     0.0358 H       
  50 H50           -2.7623    -3.7632    -1.1615 H       
  51 H51           -1.9667    -5.2623    -0.6136 H       
  52 H52           -7.5269    -7.2543     3.4285 H       
  53 H53           -5.1073    -7.5988    -0.7529 H       
  54 H54           -3.7045     2.8350    -0.1320 H       
  55 H55           -6.1590     2.8804     0.0221 H       
  56 H56           -7.4099     0.7994     0.4175 H       
  57 H57           -6.2152    -1.3372     0.6620 H       
  58 H58           -3.7613    -1.4043     0.5049 H       
  59 H59            2.0343     5.3949     0.8009 H       
  60 H60           -8.4031   -10.3614     0.5547 H       
  61 H61           -9.3292    -8.9879    -0.0966 H       
  62 H62           -8.8314   -10.3158    -1.1723 H       
  63 H63            4.5050     5.3603    -1.5316 H       
  64 H64            3.6434     6.3966    -0.3687 H       
  65 H65            5.4206     6.4442    -0.4568 H       
  66 H66            4.7349     4.5245     2.6581 H       
  67 H67            5.5548     5.9561     1.9899 H       
  68 H68            3.7777     5.9085     2.0779 H       
@<TRIPOS>BOND
   1    1    2 2
   2    1    6 1
   3    1    5 1
   4    2    3 1
   5    3    4 1
   6    3   12 1
   7    4    5 2
   8    4   27 1
   9    6    7 ar
  10    6    8 ar
  11    7   33 ar
  12    7   38 1
  13    8    9 ar
  14    8   39 1
  15    9   10 ar
  16    9   40 1
  17   10   33 ar
  18   10   11 1
  19   11   36 1
  20   11   37 1
  21   11   41 1
  22   12   13 1
  23   12   42 1
  24   12   43 1
  25   13   14 am
  26   13   15 2
  27   14   16 1
  28   14   20 1
  29   16   17 1
  30   16   44 1
  31   16   45 1
  32   17   18 1
  33   17   46 1
  34   17   47 1
  35   18   19 1
  36   18   21 1
  37   19   20 1
  38   19   48 1
  39   19   49 1
  40   20   50 1
  41   20   51 1
  42   21   22 ar
  43   21   26 ar
  44   22   23 ar
  45   23   24 ar
  46   23   52 1
  47   24   25 ar
  48   25   26 ar
  49   25   34 1
  50   26   53 1
  51   27   28 ar
  52   27   32 ar
  53   28   29 ar
  54   28   54 1
  55   29   30 ar
  56   29   55 1
  57   30   31 ar
  58   30   56 1
  59   31   32 ar
  60   31   57 1
  61   32   58 1
  62   33   59 1
  63   34   35 1
  64   35   60 1
  65   35   61 1
  66   35   62 1
  67   36   63 1
  68   36   64 1
  69   36   65 1
  70   37   66 1
  71   37   67 1
  72   37   68 1

#	End of record

