#	Name: ASD06020137
#	Creating user name:	WinNT
#	Creation time:	15. 06. 2019 21:04

#	Modifying user name:	WinNT
#	Modification time:	15. 06. 2019 21:04

#	Program:	/corina/corina34_cracker 3.40 0067  02.08.2006

@<TRIPOS>MOLECULE
ASD06020137
  39   42    0    0    0
SMALL
NO_CHARGES


@<TRIPOS>ATOM
   1 C1             2.9024     5.2802    -0.0004 C.3     
   2 O2             4.2831     5.6487     0.0039 O.3     
   3 C3             1.4730     1.8870    -0.0307 C.ar    
   4 N4             1.5909     3.1996    -0.0191 N.ar    
   5 C5             2.7835     3.7780    -0.0132 C.ar    
   6 C6             3.9160     2.9871    -0.0192 C.ar    
   7 C7             3.7557     1.6003    -0.0315 C.ar    
   8 N8             2.5256     1.0948    -0.0368 N.ar    
   9 N9             4.8614     0.7633    -0.0384 N.pl3   
  10 C10            4.6916    -0.6162     0.0615 C.ar    
  11 C11            5.7982    -1.4631    -0.0583 C.ar    
  12 C12            5.6221    -2.8474     0.0432 C.ar    
  13 C13            4.3011    -3.3155     0.2673 C.ar    
  14 C14            3.2814    -2.4205     0.3722 C.ar    
  15 N15            3.4871    -1.1158     0.2742 N.ar    
  16 S16            7.5066    -1.1401    -0.3318 S.3     
  17 C17            7.8497    -2.8648    -0.2896 C.2     
  18 N18            6.7595    -3.5322    -0.0900 N.2     
  19 F19            4.0577    -4.6400     0.3753 F       
  20 C20            9.1886    -3.4643    -0.4580 C.ar    
  21 C21            9.3464    -4.8522    -0.4062 C.ar    
  22 C22           10.5980    -5.4083    -0.5639 C.ar    
  23 C23           11.7029    -4.5901    -0.7743 C.ar    
  24 C24           11.5499    -3.2086    -0.8265 C.ar    
  25 C25           10.3006    -2.6455    -0.6754 C.ar    
  26 Cl26          10.1096    -0.9216    -0.7484 Cl      
  27 Cl27           7.9681    -5.8744    -0.1431 Cl      
  28 N28           12.9666    -5.1558    -0.9328 N.pl3   
  29 H29            2.4181     5.6755     0.8924 H       
  30 H30            2.4197     5.6905    -0.8875 H       
  31 H31            4.4353     6.6037     0.0121 H       
  32 H32            0.4860     1.4486    -0.0307 H       
  33 H33            4.9008     3.4305    -0.0150 H       
  34 H34            5.7530     1.1381    -0.1128 H       
  35 H35            2.2786    -2.7834     0.5427 H       
  36 H36           10.7208    -6.4805    -0.5237 H       
  37 H37           12.4102    -2.5765    -0.9897 H       
  38 H38           13.0747    -6.1191    -0.8964 H       
  39 H39           13.7380    -4.5863    -1.0796 H       
@<TRIPOS>BOND
   1    1    2 1
   2    1    5 1
   3    1   29 1
   4    1   30 1
   5    2   31 1
   6    3    4 ar
   7    3    8 ar
   8    3   32 1
   9    4    5 ar
  10    5    6 ar
  11    6    7 ar
  12    6   33 1
  13    7    8 ar
  14    7    9 1
  15    9   10 1
  16    9   34 1
  17   10   11 ar
  18   10   15 ar
  19   11   12 ar
  20   11   16 1
  21   12   13 ar
  22   12   18 1
  23   13   14 ar
  24   13   19 1
  25   14   15 ar
  26   14   35 1
  27   16   17 1
  28   17   18 2
  29   17   20 1
  30   20   21 ar
  31   20   25 ar
  32   21   22 ar
  33   21   27 1
  34   22   23 ar
  35   22   36 1
  36   23   24 ar
  37   23   28 1
  38   24   25 ar
  39   24   37 1
  40   25   26 1
  41   28   38 1
  42   28   39 1

#	End of record

