#	Name: ASD01028318
#	Creating user name:	WinNT
#	Creation time:	15. 06. 2019 18:56

#	Modifying user name:	WinNT
#	Modification time:	15. 06. 2019 18:56

#	Program:	/corina/corina34_cracker 3.40 0067  02.08.2006

@<TRIPOS>MOLECULE
ASD01028318
  42   46    0    0    0
SMALL
NO_CHARGES


@<TRIPOS>ATOM
   1 C1            -0.0171     1.4114     0.0098 C.ar    
   2 C2             0.0021    -0.0041     0.0020 C.ar    
   3 C3             1.2103     2.1123     0.0018 C.ar    
   4 C4             2.3789     1.3724    -0.0133 C.ar    
   5 C5             2.3154    -0.0156    -0.0202 C.ar    
   6 N6             1.1702    -0.6560    -0.0123 N.ar    
   7 O7             1.2413     3.4677     0.0084 O.3     
   8 C8             2.5290     4.0873    -0.0005 C.3     
   9 C9             2.3657     5.5854     0.0086 C.2     
  10 N10            2.2895     6.3724     1.1040 N.pl3   
  11 C11            2.1457     7.6579     0.6382 C.2     
  12 N12            2.1420     7.5880    -0.6830 N.2     
  13 N13            2.2777     6.3598    -1.0440 N.2     
  14 N14            2.3277     6.1258     2.4779 N.2     
  15 C15            2.2270     7.1167     3.3360 C.2     
  16 C16            2.0781     8.4468     2.8891 C.2     
  17 C17            2.0384     8.7182     1.5580 C.2     
  18 C18            2.2700     6.8329     4.7917 C.ar    
  19 C19            2.4162     5.5233     5.2448 C.ar    
  20 C20            2.4560     5.2652     6.6000 C.ar    
  21 C21            2.3510     6.3036     7.5079 C.ar    
  22 C22            2.2057     7.6054     7.0636 C.ar    
  23 C23            2.1700     7.8757     5.7107 C.ar    
  24 C24           -1.2168    -0.7035     0.0100 C.ar    
  25 C25           -2.3918    -0.0142     0.0250 C.ar    
  26 C26           -2.4067     1.3799     0.0326 C.ar    
  27 Cl27          -3.8935    -0.8850     0.0342 Cl      
  28 C28           -1.2445     2.0899     0.0310 C.ar    
  29 H29            3.3367     1.8715    -0.0201 H       
  30 H30            3.2342    -0.5831    -0.0325 H       
  31 H31            3.0875     3.7773     0.8827 H       
  32 H32            3.0708     3.7863    -0.8971 H       
  33 H33            1.9959     9.2504     3.6060 H       
  34 H34            1.9245     9.7343     1.2102 H       
  35 H35            2.4979     4.7118     4.5369 H       
  36 H36            2.5690     4.2505     6.9524 H       
  37 H37            2.3823     6.0970     8.5675 H       
  38 H38            2.1238     8.4123     7.7768 H       
  39 H39            2.0565     8.8926     5.3649 H       
  40 H40           -1.2221    -1.7835     0.0039 H       
  41 H41           -3.3514     1.9032     0.0444 H       
  42 H42           -1.2679     3.1696     0.0373 H       
@<TRIPOS>BOND
   1    1    2 ar
   2    1    3 ar
   3    1   28 ar
   4    2   24 ar
   5    2    6 ar
   6    3    4 ar
   7    3    7 1
   8    4    5 ar
   9    4   29 1
  10    5    6 ar
  11    5   30 1
  12    7    8 1
  13    8    9 1
  14    8   31 1
  15    8   32 1
  16    9   10 1
  17    9   13 2
  18   10   11 1
  19   10   14 1
  20   11   12 2
  21   11   17 1
  22   12   13 1
  23   14   15 2
  24   15   16 1
  25   15   18 1
  26   16   17 2
  27   16   33 1
  28   17   34 1
  29   18   19 ar
  30   18   23 ar
  31   19   20 ar
  32   19   35 1
  33   20   21 ar
  34   20   36 1
  35   21   22 ar
  36   21   37 1
  37   22   23 ar
  38   22   38 1
  39   23   39 1
  40   24   25 ar
  41   24   40 1
  42   25   26 ar
  43   25   27 1
  44   26   28 ar
  45   26   41 1
  46   28   42 1

#	End of record

