#	Name: ASD00460014
#	Creating user name:	WinNT
#	Creation time:	15. 06. 2019 18:36

#	Modifying user name:	WinNT
#	Modification time:	15. 06. 2019 18:36

#	Program:	/corina/corina34_cracker 3.40 0067  02.08.2006

@<TRIPOS>MOLECULE
ASD00460014
  77   81    0    0    0
SMALL
NO_CHARGES


@<TRIPOS>ATOM
   1 C1            -0.0872     1.6133    -0.5266 C.ar    
   2 C2            -0.1430     0.2289    -1.1194 C.3     
   3 O3             1.1601    -0.3566    -1.0855 O.3     
   4 C4             1.1545    -1.7803    -0.9625 C.3     
   5 C5             2.5949    -2.2956    -0.9363 C.3     
   6 C6             2.5923    -3.8040    -0.6799 C.3     
   7 N7             3.9751    -4.2785    -0.5356 N.3     
   8 C8             4.0118    -5.7260    -0.2877 C.3     
   9 C9            -0.6263     0.3139    -2.5686 C.3     
  10 O10            3.2197    -2.0272    -2.1931 O.3     
  11 C11            5.4651    -6.1820    -0.1434 C.3     
  12 C12            5.5027    -7.6669     0.1109 C.ar    
  13 C13            3.2477    -6.0425     0.9995 C.3     
  14 C14            3.3607    -6.4610    -1.4611 C.3     
  15 C15            5.5741    -8.5479    -0.9512 C.ar    
  16 C16            5.6087    -9.9123    -0.7172 C.ar    
  17 C17            5.5717   -10.3921     0.5809 C.ar    
  18 C18            5.5003    -9.5089     1.6417 C.ar    
  19 C19            5.4715    -8.1470     1.4072 C.ar    
  20 C20            5.6087   -11.8767     0.8372 C.3     
  21 F21            5.6781   -10.7746    -1.7549 F       
  22 C22            1.1000     2.3209    -0.5340 C.ar    
  23 C23            1.1512     3.5910     0.0100 C.ar    
  24 C24            0.0150     4.1531     0.5608 C.ar    
  25 C25           -1.1728     3.4456     0.5674 C.ar    
  26 C26           -1.2250     2.1777     0.0197 C.ar    
  27 C27           -2.5197     1.4065     0.0269 C.3     
  28 C28           -3.2819     1.6455     1.3503 C.3     
  29 C29           -4.6281     2.3022     0.9168 C.3     
  30 C30           -4.2277     3.7282     0.4295 C.3     
  31 C31           -3.4654     3.4892    -0.8940 C.3     
  32 C32           -3.4771     1.9413    -1.0816 C.3     
  33 C33           -4.8182     4.2039    -0.8994 C.3     
  34 C34           -4.8720     1.5839    -0.4572 C.3     
  35 C35           -4.8188     5.6869    -1.1675 C.2     
  36 O36           -3.7757     6.2676    -1.3536 O.2     
  37 O37           -5.9781     6.3627    -1.1996 O.3     
  38 H38           -0.8329    -0.3862    -0.5418 H       
  39 H39            0.6506    -2.0632    -0.0383 H       
  40 H40            0.6280    -2.2163    -1.8115 H       
  41 H41            3.1462    -1.7929    -0.1417 H       
  42 H42            2.0381    -4.0162     0.2345 H       
  43 H43            2.1187    -4.3143    -1.5185 H       
  44 H44            4.5268    -4.0362    -1.3449 H       
  45 H45            0.0637     0.9290    -3.1463 H       
  46 H46           -0.6666    -0.6874    -2.9974 H       
  47 H47           -1.6202     0.7605    -2.5945 H       
  48 H48            2.7812    -2.4441    -2.9474 H       
  49 H49            6.0094    -5.9565    -1.0604 H       
  50 H50            5.9289    -5.6583     0.6925 H       
  51 H51            2.2123    -5.7176     0.8967 H       
  52 H52            3.2749    -7.1165     1.1834 H       
  53 H53            3.7115    -5.5188     1.8354 H       
  54 H54            3.9051    -6.2355    -2.3781 H       
  55 H55            3.3880    -7.5350    -1.2772 H       
  56 H56            2.3254    -6.1361    -1.5639 H       
  57 H57            5.6026    -8.1725    -1.9634 H       
  58 H58            5.4714    -9.8830     2.6545 H       
  59 H59            5.4161    -7.4577     2.2367 H       
  60 H60            6.6440   -12.2019     0.9403 H       
  61 H61            5.0644   -12.1007     1.7545 H       
  62 H62            5.1446   -12.4013     0.0020 H       
  63 H63            1.9878     1.8817    -0.9644 H       
  64 H64            2.0791     4.1436     0.0048 H       
  65 H65            0.0552     5.1449     0.9864 H       
  66 H66           -2.0605     3.8848     0.9982 H       
  67 H67           -2.3283     0.3428    -0.1146 H       
  68 H68           -3.4671     0.6991     1.8584 H       
  69 H69           -2.7202     2.3208     1.9957 H       
  70 H70           -5.4367     2.2576     1.6464 H       
  71 H71           -3.8938     4.4486     1.1762 H       
  72 H72           -2.5536     4.0284    -1.1507 H       
  73 H73           -3.2833     1.5824    -2.0924 H       
  74 H74           -5.6741     3.6559    -1.2933 H       
  75 H75           -5.0033     0.5084    -0.3386 H       
  76 H76           -5.6955     2.0328    -1.0126 H       
  77 H77           -5.9280     7.3123    -1.3752 H       
@<TRIPOS>BOND
   1    1    2 1
   2    1   22 ar
   3    1   26 ar
   4    2    3 1
   5    2    9 1
   6    2   38 1
   7    3    4 1
   8    4    5 1
   9    4   39 1
  10    4   40 1
  11    5    6 1
  12    5   10 1
  13    5   41 1
  14    6    7 1
  15    6   42 1
  16    6   43 1
  17    7    8 1
  18    7   44 1
  19    8   11 1
  20    8   13 1
  21    8   14 1
  22    9   45 1
  23    9   46 1
  24    9   47 1
  25   10   48 1
  26   11   12 1
  27   11   49 1
  28   11   50 1
  29   12   15 ar
  30   12   19 ar
  31   13   51 1
  32   13   52 1
  33   13   53 1
  34   14   54 1
  35   14   55 1
  36   14   56 1
  37   15   16 ar
  38   15   57 1
  39   16   17 ar
  40   16   21 1
  41   17   18 ar
  42   17   20 1
  43   18   19 ar
  44   18   58 1
  45   19   59 1
  46   20   60 1
  47   20   61 1
  48   20   62 1
  49   22   23 ar
  50   22   63 1
  51   23   24 ar
  52   23   64 1
  53   24   25 ar
  54   24   65 1
  55   25   26 ar
  56   25   66 1
  57   26   27 1
  58   27   28 1
  59   27   32 1
  60   27   67 1
  61   28   29 1
  62   28   68 1
  63   28   69 1
  64   29   30 1
  65   29   34 1
  66   29   70 1
  67   30   31 1
  68   30   33 1
  69   30   71 1
  70   31   32 1
  71   31   33 1
  72   31   72 1
  73   32   34 1
  74   32   73 1
  75   33   35 1
  76   33   74 1
  77   34   75 1
  78   34   76 1
  79   35   36 2
  80   35   37 1
  81   37   77 1

#	End of record

