#	Name: ASD01208068
#	Creating user name:	WinNT
#	Creation time:	15. 06. 2019 19:09

#	Modifying user name:	WinNT
#	Modification time:	15. 06. 2019 19:09

#	Program:	/corina/corina34_cracker 3.40 0067  02.08.2006

@<TRIPOS>MOLECULE
ASD01208068
  64   68    0    0    0
SMALL
NO_CHARGES


@<TRIPOS>ATOM
   1 C1            -0.0492     1.3991     0.1335 C.ar    
   2 C2             0.1028     0.0238     0.0349 C.ar    
   3 C3            -1.0093    -0.8058     0.0725 C.ar    
   4 C4            -2.2762    -0.2629     0.2087 C.ar    
   5 C5            -2.4334     1.1202     0.3082 C.ar    
   6 C6            -1.3122     1.9500     0.2752 C.ar    
   7 C7            -3.7836     1.7041     0.4537 C.2     
   8 C8            -4.0747     3.0452     0.5609 C.2     
   9 N9            -4.9570     1.0055     0.4990 N.pl3   
  10 C10           -5.9930     1.8982     0.6407 C.2     
  11 C11           -5.4599     3.1683     0.6805 C.2     
  12 O12            1.0431     2.2069     0.0965 O.3     
  13 C13            0.8076     3.6162     0.0821 C.3     
  14 C14            1.9987     4.3258    -0.5650 C.3     
  15 O15            3.1599     4.1449     0.2480 O.3     
  16 C16            0.6324     4.1187     1.5166 C.3     
  17 O17           -0.8551    -2.1523    -0.0249 O.3     
  18 C18           -1.3399    -2.7709    -1.1316 C.ar    
  19 C19           -1.3176    -4.1604    -1.2165 C.ar    
  20 C20           -1.8623    -2.0163    -2.1744 C.ar    
  21 C21           -2.3562    -2.6400    -3.2991 C.ar    
  22 C22           -2.3313    -4.0336    -3.3915 C.ar    
  23 C23           -1.8093    -4.7913    -2.3393 C.ar    
  24 C24           -7.4202     1.5577     0.7292 C.2     
  25 N25           -8.3577     2.4500     0.8631 N.2     
  26 C26           -9.6570     1.7535     0.9332 C.3     
  27 C27           -9.2259     0.2911     1.2011 C.3     
  28 O28           -7.8818     0.2898     0.6736 O.3     
  29 C29           -2.8603    -4.7047    -4.5951 C.2     
  30 N30           -2.9931    -6.0458    -4.6153 N.am    
  31 O31           -3.1761    -4.0478    -5.5681 O.2     
  32 C32           -3.5122    -7.0443    -5.5621 C.3     
  33 C33           -3.8214    -7.9453    -4.3585 C.3     
  34 C34           -2.6767    -7.1552    -3.7031 C.3     
  35 F35           -0.8134    -4.8910    -0.1981 F       
  36 C36            4.3351     4.7719    -0.2696 C.3     
  37 H37            1.0893    -0.4027    -0.0718 H       
  38 H38           -3.1412    -0.9089     0.2376 H       
  39 H39           -1.4296     3.0208     0.3519 H       
  40 H40           -3.3607     3.8554     0.5537 H       
  41 H41           -5.0445     0.0412     0.4407 H       
  42 H42           -6.0126     4.0902     0.7857 H       
  43 H43           -0.0959     3.8278    -0.4898 H       
  44 H44            2.1786     3.9051    -1.5543 H       
  45 H45            1.7816     5.3900    -0.6567 H       
  46 H46            0.4527     5.1938     1.5056 H       
  47 H47           -0.2161     3.6132     1.9776 H       
  48 H48            1.5359     3.9072     2.0885 H       
  49 H49           -1.8816    -0.9388    -2.1031 H       
  50 H50           -2.7627    -2.0519    -4.1086 H       
  51 H51           -1.7880    -5.8690    -2.4073 H       
  52 H52          -10.2607     2.1381     1.7552 H       
  53 H53          -10.1931     1.8341    -0.0124 H       
  54 H54           -9.2315     0.0709     2.2686 H       
  55 H55           -9.8582    -0.4094     0.6555 H       
  56 H56           -4.4026    -6.7137    -6.0969 H       
  57 H57           -2.7489    -7.4520    -6.2249 H       
  58 H58           -4.8006    -7.7736    -3.9115 H       
  59 H59           -3.5981    -8.9998    -4.5206 H       
  60 H60           -1.6936    -7.5941    -3.8726 H       
  61 H61           -2.8578    -6.9176    -2.6549 H       
  62 H62            4.5635     4.3604    -1.2527 H       
  63 H63            4.1665     5.8454    -0.3552 H       
  64 H64            5.1718     4.5881     0.4045 H       
@<TRIPOS>BOND
   1    1    2 ar
   2    1   12 1
   3    1    6 ar
   4    2    3 ar
   5    2   37 1
   6    3    4 ar
   7    3   17 1
   8    4    5 ar
   9    4   38 1
  10    5    6 ar
  11    5    7 1
  12    6   39 1
  13    7    8 2
  14    7    9 1
  15    8   11 1
  16    8   40 1
  17    9   10 1
  18    9   41 1
  19   10   11 2
  20   10   24 1
  21   11   42 1
  22   12   13 1
  23   13   14 1
  24   13   16 1
  25   13   43 1
  26   14   15 1
  27   14   44 1
  28   14   45 1
  29   15   36 1
  30   16   46 1
  31   16   47 1
  32   16   48 1
  33   17   18 1
  34   18   19 ar
  35   18   20 ar
  36   19   35 1
  37   19   23 ar
  38   20   21 ar
  39   20   49 1
  40   21   22 ar
  41   21   50 1
  42   22   23 ar
  43   22   29 1
  44   23   51 1
  45   24   25 2
  46   24   28 1
  47   25   26 1
  48   26   27 1
  49   26   52 1
  50   26   53 1
  51   27   28 1
  52   27   54 1
  53   27   55 1
  54   29   30 am
  55   29   31 2
  56   30   32 1
  57   30   34 1
  58   32   33 1
  59   32   56 1
  60   32   57 1
  61   33   34 1
  62   33   58 1
  63   33   59 1
  64   34   60 1
  65   34   61 1
  66   36   62 1
  67   36   63 1
  68   36   64 1

#	End of record

