#	Name: ASD01120208
#	Creating user name:	WinNT
#	Creation time:	15. 06. 2019 18:59

#	Modifying user name:	WinNT
#	Modification time:	15. 06. 2019 18:59

#	Program:	/corina/corina34_cracker 3.40 0067  02.08.2006

@<TRIPOS>MOLECULE
ASD01120208
  38   41    0    0    0
SMALL
NO_CHARGES


@<TRIPOS>ATOM
   1 C1             0.2695     2.0623     0.7495 C.ar    
   2 C2             0.1490     0.6858     0.7961 C.ar    
   3 C3             1.2619    -0.1232     0.6622 C.ar    
   4 C4             2.5139     0.4399     0.4792 C.ar    
   5 C5             2.6529     1.8345     0.4292 C.ar    
   6 C6             1.5166     2.6507     0.5662 C.ar    
   7 O7             3.7562    -0.0732     0.3211 O.3     
   8 C8             4.6170     0.9500     0.1809 C.2     
   9 N9             3.9740     2.0891     0.2432 N.2     
  10 N10            5.9746     0.8194    -0.0008 N.am    
  11 S11            6.6782    -0.6784     0.0626 S.o2    
  12 O12            5.9074    -1.5199    -0.7841 O.2     
  13 O13            8.0741    -0.4735    -0.1073 O.2     
  14 C14            6.4607    -1.2878     1.7015 C.ar    
  15 C15            7.0551    -0.6354     2.7666 C.ar    
  16 C16            6.8838    -1.1137     4.0537 C.ar    
  17 C17            6.1188    -2.2429     4.2751 C.ar    
  18 C18            5.5239    -2.8953     3.2096 C.ar    
  19 C19            5.6915    -2.4146     1.9234 C.ar    
  20 Cl20           8.0162     0.7833     2.4886 Cl      
  21 Cl21           4.5627    -4.3140     3.4877 Cl      
  22 C22            0.9768     6.2612    -0.3336 C.ar    
  23 C23            0.8230     4.8907    -0.3177 C.ar    
  24 C24            1.6461     4.1253     0.5152 C.ar    
  25 C25            2.5946     4.7910     1.2989 C.ar    
  26 C26            2.6809     6.1653     1.2208 C.ar    
  27 N27            1.8845     6.8499     0.4219 N.ar    
  28 H28           -0.6084     2.6830     0.8513 H       
  29 H29           -0.8235     0.2384     0.9389 H       
  30 H30            1.1548    -1.1972     0.7008 H       
  31 H31            6.5196     1.6047    -0.1660 H       
  32 H32            7.3485    -0.6048     4.8853 H       
  33 H33            5.9855    -2.6165     5.2796 H       
  34 H34            5.2269    -2.9236     1.0918 H       
  35 H35            0.3491     6.8602    -0.9767 H       
  36 H36            0.0778     4.4155    -0.9384 H       
  37 H37            3.2492     4.2372     1.9555 H       
  38 H38            3.4100     6.6882     1.8220 H       
@<TRIPOS>BOND
   1    1    2 ar
   2    1    6 ar
   3    1   28 1
   4    2    3 ar
   5    2   29 1
   6    3    4 ar
   7    3   30 1
   8    4    5 ar
   9    4    7 1
  10    5    6 ar
  11    5    9 1
  12    6   24 1
  13    7    8 1
  14    8    9 2
  15    8   10 1
  16   10   11 am
  17   10   31 1
  18   11   12 2
  19   11   13 2
  20   11   14 1
  21   14   15 ar
  22   14   19 ar
  23   15   16 ar
  24   15   20 1
  25   16   17 ar
  26   16   32 1
  27   17   18 ar
  28   17   33 1
  29   18   19 ar
  30   18   21 1
  31   19   34 1
  32   22   23 ar
  33   22   27 ar
  34   22   35 1
  35   23   24 ar
  36   23   36 1
  37   24   25 ar
  38   25   26 ar
  39   25   37 1
  40   26   27 ar
  41   26   38 1

#	End of record

