#	Name: ASD04880038
#	Creating user name:	WinNT
#	Creation time:	15. 06. 2019 20:52

#	Modifying user name:	WinNT
#	Modification time:	15. 06. 2019 20:52

#	Program:	/corina/corina34_cracker 3.40 0067  02.08.2006

@<TRIPOS>MOLECULE
ASD04880038
  44   47    0    0    0
SMALL
NO_CHARGES


@<TRIPOS>ATOM
   1 C1             0.0177     1.0443    -0.0369 C.2     
   2 O2             0.4603    -0.0880    -0.0602 O.2     
   3 N3             0.8569     2.0973    -0.0969 N.am    
   4 N4             0.4746     3.4340    -0.1892 N.2     
   5 C5             1.4612     4.2619    -0.2320 C.2     
   6 C6             2.7645     3.4981    -0.1666 C.3     
   7 C7             2.3263     2.0234    -0.0693 C.3     
   8 C8             1.3382     5.7275    -0.3302 C.ar    
   9 C9             0.0749     6.3227    -0.3841 C.ar    
  10 C10           -0.0353     7.6931    -0.4754 C.ar    
  11 C11            1.1070     8.4829    -0.5143 C.ar    
  12 C12            2.3648     7.8955    -0.4615 C.ar    
  13 C13            2.4845     6.5263    -0.3639 C.ar    
  14 O14            0.9936     9.8335    -0.6048 O.3     
  15 C15            1.4258    10.4350    -1.7439 C.ar    
  16 C16            1.8544     9.6660    -2.8165 C.ar    
  17 C17            2.2929    10.2801    -3.9736 C.ar    
  18 C18            2.3054    11.6598    -4.0634 C.ar    
  19 C19            1.8790    12.4285    -2.9961 C.ar    
  20 C20            1.4341    11.8194    -1.8388 C.ar    
  21 C21           -1.4409     1.2659     0.0511 C.ar    
  22 C22           -2.3208     0.1864    -0.0445 C.ar    
  23 C23           -3.6831     0.4009     0.0385 C.ar    
  24 C24           -4.1750     1.6844     0.2163 C.ar    
  25 C25           -3.3069     2.7569     0.3110 C.ar    
  26 C26           -1.9440     2.5547     0.2358 C.ar    
  27 F27           -4.5370    -0.6419    -0.0541 F       
  28 H28            3.3523     3.6669    -1.0688 H       
  29 H29            3.3313     3.7844     0.7194 H       
  30 H30            2.6705     1.5800     0.8651 H       
  31 H31            2.6980     1.4574    -0.9234 H       
  32 H32           -0.8136     5.7095    -0.3546 H       
  33 H33           -1.0112     8.1540    -0.5171 H       
  34 H34            3.2501     8.5133    -0.4924 H       
  35 H35            3.4627     6.0708    -0.3183 H       
  36 H36            1.8454     8.5883    -2.7466 H       
  37 H37            2.6265     9.6820    -4.8087 H       
  38 H38            2.6493    12.1379    -4.9687 H       
  39 H39            1.8901    13.5060    -3.0687 H       
  40 H40            1.0969    12.4201    -1.0071 H       
  41 H41           -1.9376    -0.8138    -0.1834 H       
  42 H42           -5.2406     1.8478     0.2807 H       
  43 H43           -3.6966     3.7547     0.4488 H       
  44 H44           -1.2678     3.3931     0.3153 H       
@<TRIPOS>BOND
   1    1    2 2
   2    1    3 am
   3    1   21 1
   4    3    4 1
   5    3    7 1
   6    4    5 2
   7    5    6 1
   8    5    8 1
   9    6    7 1
  10    6   28 1
  11    6   29 1
  12    7   30 1
  13    7   31 1
  14    8    9 ar
  15    8   13 ar
  16    9   10 ar
  17    9   32 1
  18   10   11 ar
  19   10   33 1
  20   11   12 ar
  21   11   14 1
  22   12   13 ar
  23   12   34 1
  24   13   35 1
  25   14   15 1
  26   15   16 ar
  27   15   20 ar
  28   16   17 ar
  29   16   36 1
  30   17   18 ar
  31   17   37 1
  32   18   19 ar
  33   18   38 1
  34   19   20 ar
  35   19   39 1
  36   20   40 1
  37   21   22 ar
  38   21   26 ar
  39   22   23 ar
  40   22   41 1
  41   23   24 ar
  42   23   27 1
  43   24   25 ar
  44   24   42 1
  45   25   26 ar
  46   25   43 1
  47   26   44 1

#	End of record

