#	Name: ASD01948084
#	Creating user name:	WinNT
#	Creation time:	15. 06. 2019 20:13

#	Modifying user name:	WinNT
#	Modification time:	15. 06. 2019 20:13

#	Program:	/corina/corina34_cracker 3.40 0067  02.08.2006

@<TRIPOS>MOLECULE
ASD01948084
  55   58    0    0    0
SMALL
NO_CHARGES


@<TRIPOS>ATOM
   1 C1            -0.2808     0.7817     0.0943 C.3     
   2 C2            -0.6357     1.5997     1.3376 C.3     
   3 C3            -1.7434     1.1061     0.4047 C.3     
   4 S4             0.4957     1.6579    -1.2913 S.o2    
   5 O5             1.8263     1.1997    -1.4882 O.2     
   6 O6            -0.4096     1.7693    -2.3810 O.2     
   7 N7             0.6750     3.2122    -0.7489 N.am    
   8 C8             2.6838     2.6543     0.4779 C.2     
   9 C9             1.8736     3.6050    -0.1181 C.2     
  10 C10            2.2419     4.9577    -0.0966 C.2     
  11 C11            3.4319     5.3037     0.5353 C.2     
  12 C12            4.2094     4.3180     1.1174 C.2     
  13 N13            3.8458     3.0010     1.0941 N.am    
  14 S14            2.4364     0.9049     0.5889 S.3     
  15 C15            4.6206     1.9127     1.6890 C.3     
  16 C16            3.9635     0.5475     1.5061 C.3     
  17 O17            5.2530     4.6352     1.6696 O.2     
  18 C18            3.8723     6.7441     0.5851 C.3     
  19 N19            1.4420     5.9240    -0.6894 N.pl3   
  20 C20            1.1584     5.8543    -2.0577 C.ar    
  21 C21            0.2768     6.7632    -2.6342 C.ar    
  22 C22           -0.0004     6.6911    -3.9866 C.ar    
  23 C23            0.5978     5.7162    -4.7654 C.ar    
  24 C24            1.4744     4.8119    -4.1942 C.ar    
  25 C25            1.7603     4.8818    -2.8441 C.ar    
  26 I26            0.1740     5.6096    -6.8143 I       
  27 F27           -0.3078     7.7144    -1.8735 F       
  28 C28            0.1832    -0.6608     0.3064 C.3     
  29 C29            0.3359    -1.3521    -1.0499 C.3     
  30 C30            0.9351    -2.7452    -0.8477 C.3     
  31 O31            1.1859    -3.3452    -2.1202 O.3     
  32 O32           -0.9455    -1.4703    -1.6713 O.3     
  33 H33           -0.5386     1.1102     2.3066 H       
  34 H34           -0.4026     2.6644     1.3229 H       
  35 H35           -2.2391     1.8461    -0.2237 H       
  36 H36           -2.3751     0.2920     0.7600 H       
  37 H37           -0.0444     3.8525    -0.8650 H       
  38 H38            5.6088     1.8929     1.2296 H       
  39 H39            4.7361     2.1057     2.7556 H       
  40 H40            3.7316     0.1067     2.4756 H       
  41 H41            4.6084    -0.1154     0.9293 H       
  42 H42            3.4022     7.2385     1.4352 H       
  43 H43            4.9560     6.7892     0.6923 H       
  44 H44            3.5771     7.2463    -0.3361 H       
  45 H45            1.0794     6.6480    -0.1552 H       
  46 H46           -0.6845     7.3960    -4.4356 H       
  47 H47            1.9391     4.0521    -4.8051 H       
  48 H48            2.4482     4.1774    -2.4003 H       
  49 H49            1.1422    -0.6615     0.8246 H       
  50 H50           -0.5540    -1.1952     0.9056 H       
  51 H51            0.9952    -0.7619    -1.6864 H       
  52 H52            1.8707    -2.6616    -0.2947 H       
  53 H53            0.2352    -3.3638    -0.2859 H       
  54 H54            1.5671    -4.2324    -2.0684 H       
  55 H55           -1.5849    -1.9844    -1.1594 H       
@<TRIPOS>BOND
   1    1    2 1
   2    1    3 1
   3    1    4 1
   4    1   28 1
   5    2    3 1
   6    2   33 1
   7    2   34 1
   8    3   35 1
   9    3   36 1
  10    4    5 2
  11    4    6 2
  12    4    7 am
  13    7    9 1
  14    7   37 1
  15    8    9 2
  16    8   13 1
  17    8   14 1
  18    9   10 1
  19   10   11 2
  20   10   19 1
  21   11   12 1
  22   11   18 1
  23   12   13 am
  24   12   17 2
  25   13   15 1
  26   14   16 1
  27   15   16 1
  28   15   38 1
  29   15   39 1
  30   16   40 1
  31   16   41 1
  32   18   42 1
  33   18   43 1
  34   18   44 1
  35   19   20 1
  36   19   45 1
  37   20   21 ar
  38   20   25 ar
  39   21   22 ar
  40   21   27 1
  41   22   23 ar
  42   22   46 1
  43   23   24 ar
  44   23   26 1
  45   24   25 ar
  46   24   47 1
  47   25   48 1
  48   28   29 1
  49   28   49 1
  50   28   50 1
  51   29   30 1
  52   29   32 1
  53   29   51 1
  54   30   31 1
  55   30   52 1
  56   30   53 1
  57   31   54 1
  58   32   55 1

#	End of record

