#	Name: ASD01814469
#	Creating user name:	WinNT
#	Creation time:	15. 06. 2019 19:32

#	Modifying user name:	WinNT
#	Modification time:	15. 06. 2019 19:32

#	Program:	/corina/corina34_cracker 3.40 0067  02.08.2006

@<TRIPOS>MOLECULE
ASD01814469
  60   65    0    0    0
SMALL
NO_CHARGES


@<TRIPOS>ATOM
   1 C1            -1.0307     0.3044     0.2747 C.ar    
   2 C2            -0.9080    -1.0665     0.1109 C.ar    
   3 C3             0.3315    -1.6719     0.1344 C.ar    
   4 C4             1.4741    -0.9040     0.3236 C.ar    
   5 C5             1.3446     0.4888     0.4891 C.ar    
   6 C6             0.0916     1.0859     0.4639 C.ar    
   7 N7             2.7276    -1.4803     0.3524 N.pl3   
   8 N8             3.8113    -0.8162     0.5241 N.2     
   9 C9             3.8501     0.4803     0.6910 C.2     
  10 C10            2.5866     1.2580     0.6864 C.2     
  11 C11            4.9028     1.4766     0.9018 C.2     
  12 N12            4.2779     2.6695     1.0016 N.am    
  13 N13            2.8965     2.5072     0.8691 N.2     
  14 C14            2.8260    -2.9315     0.1775 C.3     
  15 C15            2.9733    -3.2521    -1.2876 C.ar    
  16 C16            4.2330    -3.3330    -1.8636 C.ar    
  17 C17            4.3249    -3.6303    -3.2126 C.ar    
  18 C18            3.1559    -3.8369    -3.9413 C.ar    
  19 N19            1.9700    -3.7499    -3.3526 N.ar    
  20 C20            1.8546    -3.4741    -2.0696 C.ar    
  21 O21            6.1028     1.2703     0.9731 O.2     
  22 C22            4.9224     3.8946     1.2086 C.ar    
  23 C23            3.2374    -4.1563    -5.3877 C.ar    
  24 C24            5.9313     4.3045     0.3467 C.ar    
  25 C25            6.5653     5.5140     0.5538 C.ar    
  26 C26            6.1969     6.3161     1.6180 C.ar    
  27 C27            5.1925     5.9108     2.4782 C.ar    
  28 C28            4.5504     4.7057     2.2732 C.ar    
  29 C29            4.1194    -5.1312    -5.8487 C.ar    
  30 N30            4.1927    -5.4158    -7.1329 N.ar    
  31 C31            3.4440    -4.7988    -8.0264 C.ar    
  32 C32            2.5440    -3.8190    -7.6483 C.ar    
  33 C33            2.4264    -3.4880    -6.3095 C.ar    
  34 C34            1.4571    -2.4260    -5.8584 C.3     
  35 C35            3.4561     4.2649     3.2110 C.3     
  36 C36            4.7942     6.7883     3.6369 C.3     
  37 H37           -2.0079     0.7637     0.2497 H       
  38 H38           -1.7929    -1.6678    -0.0364 H       
  39 H39            0.4137    -2.7411     0.0063 H       
  40 H40           -0.0045     2.1541     0.5911 H       
  41 H41            3.6944    -3.3048     0.7203 H       
  42 H42            1.9242    -3.4060     0.5644 H       
  43 H43            5.1218    -3.1674    -1.2729 H       
  44 H44            5.2895    -3.7007    -3.6933 H       
  45 H45            0.8726    -3.4113    -1.6245 H       
  46 H46            6.2200     3.6780    -0.4844 H       
  47 H47            7.3500     5.8333    -0.1161 H       
  48 H48            6.6947     7.2611     1.7782 H       
  49 H49            4.7489    -5.6582    -5.1470 H       
  50 H50            3.5355    -5.0625    -9.0698 H       
  51 H51            1.9366    -3.3204    -8.3892 H       
  52 H52            0.5245    -2.8948    -5.5445 H       
  53 H53            1.8860    -1.8743    -5.0218 H       
  54 H54            1.2597    -1.7405    -6.6825 H       
  55 H55            2.4961     4.6301     2.8462 H       
  56 H56            3.4360     3.1762     3.2596 H       
  57 H57            3.6448     4.6696     4.2053 H       
  58 H58            4.0014     7.4672     3.3228 H       
  59 H59            4.4362     6.1665     4.4574 H       
  60 H60            5.6570     7.3660     3.9685 H       
@<TRIPOS>BOND
   1    1    2 ar
   2    1    6 ar
   3    1   37 1
   4    2    3 ar
   5    2   38 1
   6    3    4 ar
   7    3   39 1
   8    4    5 ar
   9    4    7 1
  10    5    6 ar
  11    5   10 1
  12    6   40 1
  13    7    8 1
  14    7   14 1
  15    8    9 2
  16    9   10 1
  17    9   11 1
  18   10   13 2
  19   11   12 am
  20   11   21 2
  21   12   13 1
  22   12   22 1
  23   14   15 1
  24   14   41 1
  25   14   42 1
  26   15   16 ar
  27   15   20 ar
  28   16   17 ar
  29   16   43 1
  30   17   18 ar
  31   17   44 1
  32   18   19 ar
  33   18   23 1
  34   19   20 ar
  35   20   45 1
  36   22   24 ar
  37   22   28 ar
  38   23   29 ar
  39   23   33 ar
  40   24   25 ar
  41   24   46 1
  42   25   26 ar
  43   25   47 1
  44   26   27 ar
  45   26   48 1
  46   27   28 ar
  47   27   36 1
  48   28   35 1
  49   29   30 ar
  50   29   49 1
  51   30   31 ar
  52   31   32 ar
  53   31   50 1
  54   32   33 ar
  55   32   51 1
  56   33   34 1
  57   34   52 1
  58   34   53 1
  59   34   54 1
  60   35   55 1
  61   35   56 1
  62   35   57 1
  63   36   58 1
  64   36   59 1
  65   36   60 1

#	End of record

