#	Name: ASD01410486
#	Creating user name:	WinNT
#	Creation time:	15. 06. 2019 19:17

#	Modifying user name:	WinNT
#	Modification time:	15. 06. 2019 19:17

#	Program:	/corina/corina34_cracker 3.40 0067  02.08.2006

@<TRIPOS>MOLECULE
ASD01410486
  80   84    0    0    0
SMALL
NO_CHARGES


@<TRIPOS>ATOM
   1 C1             1.4770     3.8241    -2.3481 C.ar    
   2 C2             2.4101     3.8559    -3.3750 C.ar    
   3 C3             3.5795     3.1323    -3.2481 C.ar    
   4 N4             3.8169     2.4152    -2.1665 N.ar    
   5 C5             2.9521     2.3597    -1.1668 C.ar    
   6 C6             1.7554     3.0623    -1.2265 C.ar    
   7 O7             3.2369     1.6094    -0.0729 O.3     
   8 C8             4.3700     0.8581    -0.0916 C.ar    
   9 C9             5.6131     1.4796    -0.0935 C.ar    
  10 C10            6.7695     0.7264    -0.1123 C.ar    
  11 C11            6.6983    -0.6595    -0.1300 C.ar    
  12 C12            5.4463    -1.2931    -0.1282 C.ar    
  13 C13            4.2817    -0.5220    -0.1029 C.ar    
  14 N14            7.8668    -1.4197    -0.1500 N.am    
  15 C15            8.3080    -1.9470    -1.3092 C.2     
  16 C16            8.6151    -1.6453     1.0891 C.3     
  17 O17            9.2799    -2.6724    -1.3143 O.2     
  18 C18            7.5936    -1.6352    -2.5989 C.3     
  19 C19            8.1317    -2.5377    -3.7111 C.3     
  20 C20            9.6316    -2.2918    -3.8865 C.3     
  21 C21            9.8681    -0.8269    -4.2592 C.3     
  22 C22            9.3300     0.0756    -3.1471 C.3     
  23 C23            7.8301    -0.1702    -2.9717 C.3     
  24 C24            7.6843    -2.2446     2.1452 C.3     
  25 C25            2.1498     4.6711    -4.6155 C.3     
  26 C26           11.3680    -0.5811    -4.4346 C.3     
  27 C27            2.6909     6.0645    -4.4237 C.2     
  28 N28            3.8856     6.4417    -4.7320 N.2     
  29 C29            8.4658    -2.4803     3.4392 C.3     
  30 C30            9.0238    -1.1494     3.9475 C.3     
  31 C31            9.9546    -0.5500     2.8915 C.3     
  32 C32            9.1731    -0.3144     1.5974 C.3     
  33 O33            9.7538    -1.3695     5.1561 O.3     
  34 C34            9.7391    -0.2583     6.0546 C.3     
  35 S35            1.8081     7.3761    -3.7729 S.3     
  36 C36            3.2099     8.4262    -3.9649 C.2     
  37 C37            4.1973     7.7006    -4.4983 C.2     
  38 C38            5.3604    -2.7644    -0.1474 C.2     
  39 O39            6.3746    -3.4327    -0.1123 O.2     
  40 O40            4.1571    -3.3685    -0.2039 O.3     
  41 C41            0.7734     2.9961    -0.0853 C.3     
  42 F42           -0.3435     3.7836    -0.3850 F       
  43 F43            0.3710     1.6702     0.1073 F       
  44 F44            1.3810     3.4732     1.0811 F       
  45 H45            0.5566     4.3844    -2.4206 H       
  46 H46            4.3087     3.1535    -4.0445 H       
  47 H47            5.6745     2.5577    -0.0804 H       
  48 H48            7.7319     1.2166    -0.1136 H       
  49 H49            3.3145    -1.0024    -0.1014 H       
  50 H50            9.4375    -2.3342     0.8966 H       
  51 H51            6.5250    -1.8103    -2.4740 H       
  52 H52            7.9632    -3.5813    -3.4455 H       
  53 H53            7.6150    -2.3121    -4.6439 H       
  54 H54           10.1483    -2.5174    -2.9536 H       
  55 H55           10.0149    -2.9348    -4.6788 H       
  56 H56            9.3514    -0.6014    -5.1921 H       
  57 H57            9.8467    -0.1499    -2.2142 H       
  58 H58            9.4985     1.1192    -3.4127 H       
  59 H59            7.3134     0.0553    -3.9046 H       
  60 H60            7.4468     0.4727    -2.1794 H       
  61 H61            6.8619    -1.5557     2.3377 H       
  62 H62            7.2868    -3.1928     1.7830 H       
  63 H63            2.6434     4.2037    -5.4676 H       
  64 H64            1.0766     4.7202    -4.7994 H       
  65 H65           11.7514    -1.2240    -5.2269 H       
  66 H66           11.5365     0.4626    -4.7002 H       
  67 H67           11.8847    -0.8066    -3.5017 H       
  68 H68            7.8027    -2.9073     4.1915 H       
  69 H69            9.2882    -3.1692     3.2467 H       
  70 H70            8.2014    -0.4604     4.1401 H       
  71 H71           10.3522     0.3981     3.2536 H       
  72 H72           10.7770    -1.2390     2.6989 H       
  73 H73            9.8362     0.1126     0.8451 H       
  74 H74            8.3507     0.3746     1.7900 H       
  75 H75           10.1807     0.6101     5.5657 H       
  76 H76            8.7106    -0.0326     6.3365 H       
  77 H77           10.3146    -0.5048     6.9468 H       
  78 H78            3.2608     9.4724    -3.7017 H       
  79 H79            5.1716     8.1118    -4.7177 H       
  80 H80            4.1513    -4.3354    -0.2144 H       
@<TRIPOS>BOND
   1    1    2 ar
   2    1    6 ar
   3    1   45 1
   4    2    3 ar
   5    2   25 1
   6    3    4 ar
   7    3   46 1
   8    4    5 ar
   9    5    6 ar
  10    5    7 1
  11    6   41 1
  12    7    8 1
  13    8    9 ar
  14    8   13 ar
  15    9   10 ar
  16    9   47 1
  17   10   11 ar
  18   10   48 1
  19   11   12 ar
  20   11   14 1
  21   12   13 ar
  22   12   38 1
  23   13   49 1
  24   14   15 am
  25   14   16 1
  26   15   17 2
  27   15   18 1
  28   16   24 1
  29   16   32 1
  30   16   50 1
  31   18   19 1
  32   18   23 1
  33   18   51 1
  34   19   20 1
  35   19   52 1
  36   19   53 1
  37   20   21 1
  38   20   54 1
  39   20   55 1
  40   21   22 1
  41   21   26 1
  42   21   56 1
  43   22   23 1
  44   22   57 1
  45   22   58 1
  46   23   59 1
  47   23   60 1
  48   24   29 1
  49   24   61 1
  50   24   62 1
  51   25   27 1
  52   25   63 1
  53   25   64 1
  54   26   65 1
  55   26   66 1
  56   26   67 1
  57   27   35 1
  58   27   28 2
  59   28   37 1
  60   29   30 1
  61   29   68 1
  62   29   69 1
  63   30   31 1
  64   30   33 1
  65   30   70 1
  66   31   32 1
  67   31   71 1
  68   31   72 1
  69   32   73 1
  70   32   74 1
  71   33   34 1
  72   34   75 1
  73   34   76 1
  74   34   77 1
  75   35   36 1
  76   36   37 2
  77   36   78 1
  78   37   79 1
  79   38   39 2
  80   38   40 1
  81   40   80 1
  82   41   42 1
  83   41   43 1
  84   41   44 1

#	End of record

