#	Name: ASD01140489
#	Creating user name:	WinNT
#	Creation time:	15. 06. 2019 19:01

#	Modifying user name:	WinNT
#	Modification time:	15. 06. 2019 19:01

#	Program:	/corina/corina34_cracker 3.40 0067  02.08.2006

@<TRIPOS>MOLECULE
ASD01140489
  50   53    0    0    0
SMALL
NO_CHARGES


@<TRIPOS>ATOM
   1 C1             0.5037     1.5302    -0.7322 C.ar    
   2 C2             0.1976     0.2363    -0.3546 C.ar    
   3 C3             0.4556    -0.1969     0.9340 C.ar    
   4 C4             1.0229     0.6587     1.8593 C.ar    
   5 C5             1.3385     1.9658     1.4969 C.ar    
   6 C6             1.0756     2.4065     0.1862 C.ar    
   7 C7             1.9449     2.8851     2.4830 C.2     
   8 O8             2.1296     4.0502     2.1937 O.2     
   9 O9             2.2928     2.4307     3.7025 O.3     
  10 C10            2.8830     3.3893     4.6195 C.3     
  11 C11            1.4053     3.7918    -0.2131 C.2     
  12 N12            0.4272     4.6293    -0.6111 N.am    
  13 O13            2.5582     4.1751    -0.1822 O.2     
  14 C14            0.7202     5.9533    -0.8891 C.2     
  15 C15           -0.9462     4.1384    -0.7496 C.3     
  16 C16           -1.6266     4.1635     0.5947 C.ar    
  17 C17           -2.8422     4.1779     3.0279 C.ar    
  18 C18           -3.0266     5.2633     2.1854 C.ar    
  19 C19           -2.4044     5.2502     0.9462 C.ar    
  20 N20           -1.4773     3.1457     1.4200 N.ar    
  21 C21           -2.0538     3.1240     2.6056 C.ar    
  22 N22            1.8925     6.4807    -0.8035 N.2     
  23 S23           -0.4531     7.1517    -1.4161 S.3     
  24 C24            2.0201     7.7872    -1.1078 C.ar    
  25 C25            3.1824     8.5869    -1.0925 C.ar    
  26 C26            0.8100     8.3786    -1.4838 C.ar    
  27 C27            0.7607     9.7255    -1.8335 C.ar    
  28 C28            1.9045    10.4917    -1.8081 C.ar    
  29 C29            3.1167     9.9176    -1.4383 C.ar    
  30 O30            4.2448    10.6765    -1.4186 O.3     
  31 C31            4.1091    12.0502    -1.7883 C.3     
  32 H32            0.3032     1.8601    -1.7408 H       
  33 H33           -0.2459    -0.4407    -1.0696 H       
  34 H34            0.2119    -1.2099     1.2186 H       
  35 H35            1.2212     0.3138     2.8634 H       
  36 H36            3.7980     3.7919     4.1851 H       
  37 H37            2.1783     4.2012     4.7996 H       
  38 H38            3.1156     2.8944     5.5624 H       
  39 H39           -1.4917     4.7764    -1.4450 H       
  40 H40           -0.9303     3.1169    -1.1298 H       
  41 H41           -3.3114     4.1545     4.0003 H       
  42 H42           -3.6376     6.1008     2.4885 H       
  43 H43           -2.5260     6.0791     0.2646 H       
  44 H44           -1.9051     2.2746     3.2559 H       
  45 H45            4.1292     8.1525    -0.8073 H       
  46 H46           -0.1785    10.1711    -2.1261 H       
  47 H47            1.8617    11.5360    -2.0801 H       
  48 H48            3.7294    12.1163    -2.8079 H       
  49 H49            3.4131    12.5423    -1.1088 H       
  50 H50            5.0811    12.5399    -1.7301 H       
@<TRIPOS>BOND
   1    1    2 ar
   2    1    6 ar
   3    1   32 1
   4    2    3 ar
   5    2   33 1
   6    3    4 ar
   7    3   34 1
   8    4    5 ar
   9    4   35 1
  10    5    6 ar
  11    5    7 1
  12    6   11 1
  13    7    9 1
  14    7    8 2
  15    9   10 1
  16   10   36 1
  17   10   37 1
  18   10   38 1
  19   11   12 am
  20   11   13 2
  21   12   14 1
  22   12   15 1
  23   14   23 1
  24   14   22 2
  25   15   16 1
  26   15   39 1
  27   15   40 1
  28   16   20 ar
  29   16   19 ar
  30   17   18 ar
  31   17   21 ar
  32   17   41 1
  33   18   19 ar
  34   18   42 1
  35   19   43 1
  36   20   21 ar
  37   21   44 1
  38   22   24 1
  39   23   26 1
  40   24   26 ar
  41   24   25 ar
  42   25   29 ar
  43   25   45 1
  44   26   27 ar
  45   27   28 ar
  46   27   46 1
  47   28   29 ar
  48   28   47 1
  49   29   30 1
  50   30   31 1
  51   31   48 1
  52   31   49 1
  53   31   50 1

#	End of record

