#	Name: ASD05430147
#	Creating user name:	WinNT
#	Creation time:	15. 06. 2019 20:59

#	Modifying user name:	WinNT
#	Modification time:	15. 06. 2019 20:59

#	Program:	/corina/corina34_cracker 3.40 0067  02.08.2006

@<TRIPOS>MOLECULE
ASD05430147
  68   73    0    0    0
SMALL
NO_CHARGES


@<TRIPOS>ATOM
   1 C1            -0.0092     1.6227     0.1924 C.ar    
   2 C2            -0.1586     0.2429     0.0778 C.ar    
   3 C3             0.9632    -0.5719     0.0425 C.ar    
   4 C4             2.2249    -0.0139     0.1210 C.ar    
   5 C5             2.3729     1.3563     0.2353 C.ar    
   6 C6             1.2597     2.1747     0.2706 C.ar    
   7 C7             5.8139     2.4785    -0.9729 C.3     
   8 C8             4.3490     2.0682    -1.0827 C.3     
   9 C9             3.7516     1.9587     0.3216 C.3     
  10 C10            6.2523     3.3281    -2.1636 C.3     
  11 C11            5.4390     3.1475    -3.4537 C.3     
  12 N12            4.0440     3.4581    -3.1268 N.pl3   
  13 C13            3.5627     3.0773    -1.8771 C.2     
  14 C14            2.2318     3.1161    -4.7035 C.ar    
  15 C15            1.3004     3.5207    -5.6416 C.ar    
  16 C16            0.4527     2.5942    -6.2185 C.ar    
  17 C17            0.5364     1.2604    -5.8566 C.ar    
  18 C18            1.4697     0.8564    -4.9170 C.ar    
  19 C19            2.3164     1.7846    -4.3414 C.ar    
  20 N20           -1.4413    -0.3217    -0.0014 N.pl3   
  21 C21           -1.8762    -1.2282    -0.9330 C.2     
  22 C22           -3.1624    -1.5009    -0.6410 C.2     
  23 N23           -3.5079    -0.7834     0.4381 N.2     
  24 C24           -2.4836    -0.0776     0.8340 C.2     
  25 C25           -4.0584    -2.4485    -1.3963 C.3     
  26 N26            2.4828     3.5976    -1.4099 N.2     
  27 C27           -0.8822     3.8189     0.4548 C.3     
  28 O28           -1.1050     2.4267     0.2218 O.3     
  29 C29            3.1599     4.1264    -4.0797 C.3     
  30 C30            2.3406     5.1825    -3.3278 C.3     
  31 N31            1.7850     4.5846    -2.1114 N.pl3   
  32 F32           -0.2921     0.3539    -6.4196 F       
  33 C33            6.7930     4.7301    -1.8723 C.3     
  34 C34            7.7468     3.6192    -2.3164 C.3     
  35 C35            3.9954     4.8032    -5.1682 C.3     
  36 O36            3.1280     5.4554    -6.0979 O.3     
  37 H37            0.8506    -1.6424    -0.0460 H       
  38 H38            3.0977    -0.6495     0.0935 H       
  39 H39            1.3786     3.2444     0.3596 H       
  40 H40            5.9551     3.0512    -0.0562 H       
  41 H41            6.4320     1.5817    -0.9291 H       
  42 H42            4.2852     1.0980    -1.5752 H       
  43 H43            3.6871     2.9512     0.7675 H       
  44 H44            4.3875     1.3238     0.9385 H       
  45 H45            5.8023     3.8310    -4.2212 H       
  46 H46            5.5190     2.1181    -3.8029 H       
  47 H47            1.2351     4.5612    -5.9234 H       
  48 H48           -0.2751     2.9106    -6.9510 H       
  49 H49            1.5359    -0.1838    -4.6340 H       
  50 H50            3.0444     1.4697    -3.6085 H       
  51 H51           -1.2986    -1.6435    -1.7456 H       
  52 H52           -2.4696     0.5937     1.6799 H       
  53 H53           -3.9727    -3.4477    -0.9693 H       
  54 H54           -5.0914    -2.1089    -1.3218 H       
  55 H55           -3.7591    -2.4742    -2.4441 H       
  56 H56           -1.8406     4.3312     0.5386 H       
  57 H57           -0.3196     3.9470     1.3795 H       
  58 H58           -0.3164     4.2403    -0.3761 H       
  59 H59            2.9845     6.0202    -3.0599 H       
  60 H60            1.5289     5.5349    -3.9643 H       
  61 H61            0.9189     4.8780    -1.7879 H       
  62 H62            6.5664     5.5165    -2.5922 H       
  63 H63            6.8384     5.0454    -0.8299 H       
  64 H64            8.4197     3.2039    -1.5663 H       
  65 H65            8.1477     3.6749    -3.3285 H       
  66 H66            4.6587     5.5384    -4.7127 H       
  67 H67            4.5889     4.0525    -5.6901 H       
  68 H68            3.5905     5.9068    -6.8173 H       
@<TRIPOS>BOND
   1    1    2 ar
   2    1    6 ar
   3    1   28 1
   4    2    3 ar
   5    2   20 1
   6    3    4 ar
   7    3   37 1
   8    4    5 ar
   9    4   38 1
  10    5    6 ar
  11    5    9 1
  12    6   39 1
  13    7    8 1
  14    7   10 1
  15    7   40 1
  16    7   41 1
  17    8    9 1
  18    8   13 1
  19    8   42 1
  20    9   43 1
  21    9   44 1
  22   10   11 1
  23   10   33 1
  24   10   34 1
  25   11   12 1
  26   11   45 1
  27   11   46 1
  28   12   13 1
  29   12   29 1
  30   13   26 2
  31   14   15 ar
  32   14   19 ar
  33   14   29 1
  34   15   16 ar
  35   15   47 1
  36   16   17 ar
  37   16   48 1
  38   17   18 ar
  39   17   32 1
  40   18   19 ar
  41   18   49 1
  42   19   50 1
  43   20   21 1
  44   20   24 1
  45   21   22 2
  46   21   51 1
  47   22   23 1
  48   22   25 1
  49   23   24 2
  50   24   52 1
  51   25   53 1
  52   25   54 1
  53   25   55 1
  54   26   31 1
  55   27   28 1
  56   27   56 1
  57   27   57 1
  58   27   58 1
  59   29   30 1
  60   29   35 1
  61   30   31 1
  62   30   59 1
  63   30   60 1
  64   31   61 1
  65   33   34 1
  66   33   62 1
  67   33   63 1
  68   34   64 1
  69   34   65 1
  70   35   36 1
  71   35   66 1
  72   35   67 1
  73   36   68 1

#	End of record

