#	Name: ASD01911168
#	Creating user name:	WinNT
#	Creation time:	15. 06. 2019 19:57

#	Modifying user name:	WinNT
#	Modification time:	15. 06. 2019 19:57

#	Program:	/corina/corina34_cracker 3.40 0067  02.08.2006

@<TRIPOS>MOLECULE
ASD01911168
  32   33    0    0    0
SMALL
NO_CHARGES


@<TRIPOS>ATOM
   1 C1            -0.0184     1.5028     0.0103 C.2     
   2 C2             0.0021    -0.0041     0.0020 C.3     
   3 C3             1.4295    -0.4870    -0.0142 C.2     
   4 O4             1.0235     2.1234     0.0037 O.2     
   5 O5             2.3403     0.3134    -0.0186 O.2     
   6 C6             1.7180    -1.9301    -0.0247 C.ar    
   7 C7             3.0413    -2.3822    -0.0398 C.ar    
   8 C8             3.3035    -3.7359    -0.0496 C.ar    
   9 C9             2.2610    -4.6463    -0.0450 C.ar    
  10 C10            0.9487    -4.2068    -0.0301 C.ar    
  11 C11            0.6703    -2.8564    -0.0139 C.ar    
  12 C12           -1.3014     2.2205     0.0203 C.ar    
  13 C13           -1.3239     3.6199     0.0280 C.ar    
  14 C14           -2.5293     4.2861     0.0374 C.ar    
  15 C15           -3.7194     3.5730     0.0397 C.ar    
  16 C16           -3.7042     2.1862     0.0321 C.ar    
  17 C17           -2.5053     1.5075     0.0163 C.ar    
  18 C18           -2.5555     5.7928     0.0457 C.3     
  19 F19           -4.8985     4.2326     0.0498 F       
  20 H20           -0.4983    -0.3791     0.8948 H       
  21 H21           -0.5153    -0.3696    -0.8850 H       
  22 H22            3.8558    -1.6730    -0.0441 H       
  23 H23            4.3248    -4.0867    -0.0612 H       
  24 H24            2.4728    -5.7054    -0.0535 H       
  25 H25            0.1407    -4.9234    -0.0267 H       
  26 H26           -0.3542    -2.5150     0.0026 H       
  27 H27           -0.3981     4.1761     0.0270 H       
  28 H28           -4.6342     1.6371     0.0342 H       
  29 H29           -2.4948     0.4276     0.0059 H       
  30 H30           -2.5667     6.1617    -0.9799 H       
  31 H31           -3.4492     6.1378     0.5657 H       
  32 H32           -1.6695     6.1688     0.5574 H       
@<TRIPOS>BOND
   1    1    2 1
   2    1    4 2
   3    1   12 1
   4    2    3 1
   5    2   20 1
   6    2   21 1
   7    3    5 2
   8    3    6 1
   9    6    7 ar
  10    6   11 ar
  11    7    8 ar
  12    7   22 1
  13    8    9 ar
  14    8   23 1
  15    9   10 ar
  16    9   24 1
  17   10   11 ar
  18   10   25 1
  19   11   26 1
  20   12   13 ar
  21   12   17 ar
  22   13   14 ar
  23   13   27 1
  24   14   15 ar
  25   14   18 1
  26   15   16 ar
  27   15   19 1
  28   16   17 ar
  29   16   28 1
  30   17   29 1
  31   18   30 1
  32   18   31 1
  33   18   32 1

#	End of record

