#	Name: ASD03491014
#	Creating user name:	WinNT
#	Creation time:	15. 06. 2019 20:42

#	Modifying user name:	WinNT
#	Modification time:	15. 06. 2019 20:42

#	Program:	/corina/corina34_cracker 3.40 0067  02.08.2006

@<TRIPOS>MOLECULE
ASD03491014
  62   65    0    0    0
SMALL
NO_CHARGES


@<TRIPOS>ATOM
   1 C1             0.0038     1.0957    -1.8065 C.ar    
   2 C2             0.1086    -0.2969    -1.7507 C.ar    
   3 C3             1.3172    -0.8863    -1.3602 C.ar    
   4 C4             2.4030    -0.0783    -1.0314 C.ar    
   5 C5             2.2824     1.3026    -1.0921 C.ar    
   6 C6             1.0869     1.8831    -1.4782 C.ar    
   7 C7             0.9683     3.3842    -1.5402 C.3     
   8 N8             3.6144    -0.6587    -0.6398 N.am    
   9 C9             4.7568     0.0530    -0.7110 C.2     
  10 O10            4.7560     1.1525    -1.2265 O.2     
  11 C11            7.2834     0.2023    -0.3502 C.ar    
  12 C12            8.5536    -0.4152     0.0409 C.ar    
  13 C13            9.7553     0.3003    -0.1660 C.ar    
  14 C14            9.7051     1.5909    -0.7429 C.ar    
  15 C15            8.4899     2.1520    -1.1034 C.ar    
  16 C16            7.3001     1.4812    -0.9163 C.ar    
  17 C17            8.5980    -1.6904     0.6116 C.ar    
  18 C18            9.8013    -2.2313     0.9630 C.ar    
  19 C19           10.9849    -1.5295     0.7605 C.ar    
  20 C20           10.9748    -0.2837     0.2056 C.ar    
  21 C21            1.9891     3.9357    -2.5375 C.3     
  22 C22           -0.4429     3.7661    -1.9911 C.3     
  23 C23            1.2385     3.9747    -0.1548 C.3     
  24 C24            6.0202    -0.5092    -0.1574 C.2     
  25 O25            6.0014    -1.5596     0.4548 O.2     
  26 N26           10.8749     2.2971    -0.9480 N.pl3   
  27 C27           10.8543     3.4804    -1.6819 C.ar    
  28 C28           11.6939     4.5434    -1.3493 C.ar    
  29 C29           11.6431     5.6981    -2.1017 C.ar    
  30 N30           10.8146     5.8040    -3.1236 N.ar    
  31 C31           10.0047     4.8212    -3.4699 C.ar    
  32 C32            9.9977     3.6315    -2.7722 C.ar    
  33 O33            1.4300    -2.2380    -1.3021 O.3     
  34 C34            1.8662    -2.9043    -2.4886 C.3     
  35 C35           -1.0150    -1.1171    -2.0907 C.1     
  36 N36           -1.9063    -1.7677    -2.3604 N.1     
  37 H37           -0.9248     1.5553    -2.1113 H       
  38 H38            3.1255     1.9275    -0.8367 H       
  39 H39            3.6321    -1.5733    -0.3170 H       
  40 H40            8.4749     3.1386    -1.5423 H       
  41 H41            6.3714     1.9482    -1.2092 H       
  42 H42            7.6854    -2.2447     0.7740 H       
  43 H43            9.8345    -3.2165     1.4042 H       
  44 H44           11.9251    -1.9773     1.0466 H       
  45 H45           11.9010     0.2505     0.0538 H       
  46 H46            1.7967     3.5149    -3.5245 H       
  47 H47            1.9034     5.0214    -2.5824 H       
  48 H48            2.9946     3.6636    -2.2163 H       
  49 H49           -1.1702     3.3732    -1.2805 H       
  50 H50           -0.5287     4.8518    -2.0359 H       
  51 H51           -0.6354     3.3454    -2.9780 H       
  52 H52            2.2439     3.7026     0.1664 H       
  53 H53            1.1527     5.0604    -0.1996 H       
  54 H54            0.5112     3.5818     0.5557 H       
  55 H55           11.7104     1.9685    -0.5809 H       
  56 H56           12.3740     4.4634    -0.5141 H       
  57 H57           12.2893     6.5264    -1.8512 H       
  58 H58            9.3416     4.9487    -4.3128 H       
  59 H59            9.3327     2.8311    -3.0611 H       
  60 H60            1.9131    -3.9779    -2.3061 H       
  61 H61            1.1635    -2.7035    -3.2973 H       
  62 H62            2.8548    -2.5396    -2.7675 H       
@<TRIPOS>BOND
   1    1    2 ar
   2    1    6 ar
   3    1   37 1
   4    2    3 ar
   5    2   35 1
   6    3    4 ar
   7    3   33 1
   8    4    5 ar
   9    4    8 1
  10    5    6 ar
  11    5   38 1
  12    6    7 1
  13    7   21 1
  14    7   22 1
  15    7   23 1
  16    8    9 am
  17    8   39 1
  18    9   10 2
  19    9   24 1
  20   11   12 ar
  21   11   16 ar
  22   11   24 1
  23   12   13 ar
  24   12   17 ar
  25   13   14 ar
  26   13   20 ar
  27   14   15 ar
  28   14   26 1
  29   15   16 ar
  30   15   40 1
  31   16   41 1
  32   17   18 ar
  33   17   42 1
  34   18   19 ar
  35   18   43 1
  36   19   20 ar
  37   19   44 1
  38   20   45 1
  39   21   46 1
  40   21   47 1
  41   21   48 1
  42   22   49 1
  43   22   50 1
  44   22   51 1
  45   23   52 1
  46   23   53 1
  47   23   54 1
  48   24   25 2
  49   26   27 1
  50   26   55 1
  51   27   28 ar
  52   27   32 ar
  53   28   29 ar
  54   28   56 1
  55   29   30 ar
  56   29   57 1
  57   30   31 ar
  58   31   32 ar
  59   31   58 1
  60   32   59 1
  61   33   34 1
  62   34   60 1
  63   34   61 1
  64   34   62 1
  65   35   36 3

#	End of record

