#	Name: ASD01940465
#	Creating user name:	WinNT
#	Creation time:	15. 06. 2019 20:12

#	Modifying user name:	WinNT
#	Modification time:	15. 06. 2019 20:12

#	Program:	/corina/corina34_cracker 3.40 0067  02.08.2006

@<TRIPOS>MOLECULE
ASD01940465
  30   32    0    0    0
SMALL
NO_CHARGES


@<TRIPOS>ATOM
   1 N1             1.4265     2.4672    -2.4553 N.pl3   
   2 N2             1.9216     1.4197    -3.2411 N.2     
   3 C3             2.7218     0.6783    -2.5309 C.2     
   4 C4             2.7903     1.2140    -1.2231 C.ar    
   5 C5             3.4825     0.8370    -0.0582 C.ar    
   6 C6             3.3309     1.6010     1.1052 C.ar    
   7 C7             2.4944     2.7301     1.1010 C.ar    
   8 C8             1.8251     3.0937    -0.0255 C.ar    
   9 C9             1.9596     2.3487    -1.2007 C.ar    
  10 C10            4.0468     1.2217     2.3316 C.2     
  11 O11            4.6996     0.1966     2.3620 O.2     
  12 O12            3.9793     2.0105     3.4228 O.3     
  13 N13            4.3037    -0.2767    -0.0618 N.pl3   
  14 C14            3.8080    -1.5127     0.3669 C.ar    
  15 C15            4.5920    -2.6563     0.2516 C.ar    
  16 C16            4.0987    -3.8757     0.6768 C.ar    
  17 C17            2.8268    -3.9586     1.2160 C.ar    
  18 C18            2.0458    -2.8228     1.3314 C.ar    
  19 C19            2.5351    -1.5999     0.9136 C.ar    
  20 F20            5.8333    -2.5752    -0.2755 F       
  21 Br21           2.1547    -5.6284     1.7955 Br      
  22 H22            0.8146     3.1596    -2.7504 H       
  23 H23            3.2452    -0.1991    -2.8811 H       
  24 H24            2.3815     3.3150     2.0019 H       
  25 H25            1.1854     3.9637    -0.0122 H       
  26 H26            4.4668     1.7195     4.2056 H       
  27 H27            5.2230    -0.2004    -0.3615 H       
  28 H28            4.7062    -4.7642     0.5879 H       
  29 H29            1.0536    -2.8912     1.7523 H       
  30 H30            1.9257    -0.7133     1.0081 H       
@<TRIPOS>BOND
   1    1    2 1
   2    1    9 1
   3    1   22 1
   4    2    3 2
   5    3    4 1
   6    3   23 1
   7    4    5 ar
   8    4    9 ar
   9    5    6 ar
  10    5   13 1
  11    6    7 ar
  12    6   10 1
  13    7    8 ar
  14    7   24 1
  15    8    9 ar
  16    8   25 1
  17   10   11 2
  18   10   12 1
  19   12   26 1
  20   13   14 1
  21   13   27 1
  22   14   15 ar
  23   14   19 ar
  24   15   16 ar
  25   15   20 1
  26   16   17 ar
  27   16   28 1
  28   17   18 ar
  29   17   21 1
  30   18   19 ar
  31   18   29 1
  32   19   30 1

#	End of record

