#	Name: ASD01420086
#	Creating user name:	WinNT
#	Creation time:	15. 06. 2019 19:20

#	Modifying user name:	WinNT
#	Modification time:	15. 06. 2019 19:20

#	Program:	/corina/corina34_cracker 3.40 0067  02.08.2006

@<TRIPOS>MOLECULE
ASD01420086
  41   43    0    0    0
SMALL
NO_CHARGES


@<TRIPOS>ATOM
   1 C1            -0.0144     1.2120     0.0087 C.2     
   2 O2             0.0253     0.2228    -0.6977 O.2     
   3 C3             1.1674     2.0840     0.1221 C.ar    
   4 C4             2.4446     1.5232     0.2725 C.ar    
   5 C5             3.5507     2.3508     0.3784 C.ar    
   6 C6             3.3927     3.7297     0.3360 C.ar    
   7 C7             2.1265     4.2859     0.1869 C.ar    
   8 C8             1.0213     3.4738     0.0745 C.ar    
   9 C9             1.9651     5.7836     0.1426 C.3     
  10 C10            1.3342     6.1892    -1.1910 C.3     
  11 C11            1.0613     6.2334     1.2921 C.3     
  12 O12            4.4783     4.5382     0.4410 O.3     
  13 O13            2.5960     0.1751     0.3144 O.3     
  14 F14            4.7829     1.8162     0.5234 F       
  15 C15           -2.4289     0.8178     0.5886 C.3     
  16 N16           -1.1415     1.5134     0.6835 N.am    
  17 C17           -1.3149     2.5994     1.6534 C.3     
  18 C18           -2.7385     2.5495     2.1478 C.ar    
  19 C19           -3.4151     3.3404     3.0607 C.ar    
  20 C20           -4.7421     3.0859     3.3484 C.ar    
  21 C21           -5.3959     2.0403     2.7234 C.ar    
  22 C22           -4.7214     1.2511     1.8120 C.ar    
  23 C23           -3.3914     1.5053     1.5237 C.ar    
  24 H24            0.0407     3.9100    -0.0460 H       
  25 H25            2.9418     6.2574     0.2415 H       
  26 H26            0.3576     5.7154    -1.2899 H       
  27 H27            1.2175     7.2725    -1.2231 H       
  28 H28            1.9782     5.8688    -2.0100 H       
  29 H29            1.5107     5.9444     2.2422 H       
  30 H30            0.9445     7.3167     1.2600 H       
  31 H31            0.0846     5.7596     1.1932 H       
  32 H32            4.8896     4.7566    -0.4065 H       
  33 H33            2.7359    -0.2321    -0.5514 H       
  34 H34           -2.8039     0.8724    -0.4334 H       
  35 H35           -2.3082    -0.2246     0.8836 H       
  36 H36           -0.6287     2.4615     2.4890 H       
  37 H37           -1.1244     3.5586     1.1721 H       
  38 H38           -2.9046     4.1573     3.5491 H       
  39 H39           -5.2684     3.7033     4.0613 H       
  40 H40           -6.4332     1.8403     2.9478 H       
  41 H41           -5.2322     0.4341     1.3242 H       
@<TRIPOS>BOND
   1    1    2 2
   2    1    3 1
   3    1   16 am
   4    3    4 ar
   5    3    8 ar
   6    4    5 ar
   7    4   13 1
   8    5    6 ar
   9    5   14 1
  10    6    7 ar
  11    6   12 1
  12    7    8 ar
  13    7    9 1
  14    8   24 1
  15    9   10 1
  16    9   11 1
  17    9   25 1
  18   10   26 1
  19   10   27 1
  20   10   28 1
  21   11   29 1
  22   11   30 1
  23   11   31 1
  24   12   32 1
  25   13   33 1
  26   15   16 1
  27   15   23 1
  28   15   34 1
  29   15   35 1
  30   16   17 1
  31   17   18 1
  32   17   36 1
  33   17   37 1
  34   18   19 ar
  35   18   23 ar
  36   19   20 ar
  37   19   38 1
  38   20   21 ar
  39   20   39 1
  40   21   22 ar
  41   21   40 1
  42   22   23 ar
  43   22   41 1

#	End of record

