#	Name: ASD01911079
#	Creating user name:	WinNT
#	Creation time:	15. 06. 2019 19:57

#	Modifying user name:	WinNT
#	Modification time:	15. 06. 2019 19:57

#	Program:	/corina/corina34_cracker 3.40 0067  02.08.2006

@<TRIPOS>MOLECULE
ASD01911079
  50   53    0    0    0
SMALL
NO_CHARGES


@<TRIPOS>ATOM
   1 C1             0.1608    -1.2671     0.9856 C.ar    
   2 C2             0.7242    -2.5155     1.1725 C.ar    
   3 C3             2.0916    -2.6813     1.0554 C.ar    
   4 C4             2.8955    -1.5987     0.7511 C.ar    
   5 C5             2.3320    -0.3505     0.5633 C.ar    
   6 C6             0.9648    -0.1844     0.6817 C.ar    
   7 C7             4.3863    -1.7792     0.6245 C.3     
   8 C8             4.8236    -1.3879    -0.7636 C.2     
   9 N9             5.4209    -2.1585    -1.6405 N.2     
  10 C10            5.6163    -1.3883    -2.7256 C.2     
  11 N11            5.1368    -0.2105    -2.4582 N.2     
  12 O12            4.6715    -0.1909    -1.3381 O.3     
  13 C13            6.2715    -1.8129    -4.0145 C.3     
  14 C14            5.2817    -1.6462    -5.1698 C.3     
  15 C15            5.9352    -2.1081    -6.4743 C.3     
  16 C16            7.1637    -1.2391    -6.7610 C.3     
  17 N17            8.0541    -1.2789    -5.5930 N.am    
  18 C18            7.5039    -0.9405    -4.2733 C.3     
  19 C19            9.3510    -1.6194    -5.7295 C.2     
  20 O20           10.0937    -1.5821    -4.7677 O.2     
  21 C21            9.8700    -2.0379    -7.0477 C.ar    
  22 C22            9.6291    -1.2526    -8.1771 C.ar    
  23 C23           10.1157    -1.6478    -9.4047 C.ar    
  24 C24           10.8431    -2.8226    -9.5194 C.ar    
  25 C25           11.0848    -3.6062    -8.4014 C.ar    
  26 C26           10.6082    -3.2172    -7.1679 C.ar    
  27 F27           11.3177    -3.2053   -10.7250 F       
  28 C28            5.0962    -0.8945     1.6512 C.3     
  29 H29           -0.9080    -1.1384     1.0726 H       
  30 H30            0.0961    -3.3613     1.4103 H       
  31 H31            2.5318    -3.6565     1.2022 H       
  32 H32            2.9602     0.4955     0.3262 H       
  33 H33            0.5246     0.7909     0.5353 H       
  34 H34            4.6425    -2.8231     0.8054 H       
  35 H35            6.5735    -2.8578    -3.9421 H       
  36 H36            4.3931    -2.2470    -4.9762 H       
  37 H37            4.9987    -0.5972    -5.2570 H       
  38 H38            6.2408    -3.1501    -6.3791 H       
  39 H39            5.2219    -2.0111    -7.2928 H       
  40 H40            7.6891    -1.6257    -7.6343 H       
  41 H41            6.8495    -0.2119    -6.9461 H       
  42 H42            7.2174     0.1110    -4.2556 H       
  43 H43            8.2537    -1.1302    -3.5052 H       
  44 H44            9.0623    -0.3375    -8.0889 H       
  45 H45            9.9296    -1.0414   -10.2788 H       
  46 H46           11.6517    -4.5206    -8.4963 H       
  47 H47           10.7973    -3.8282    -6.2976 H       
  48 H48            4.8399     0.1494     1.4703 H       
  49 H49            4.7799    -1.1776     2.6552 H       
  50 H50            6.1744    -1.0251     1.5597 H       
@<TRIPOS>BOND
   1    1    2 ar
   2    1    6 ar
   3    1   29 1
   4    2    3 ar
   5    2   30 1
   6    3    4 ar
   7    3   31 1
   8    4    5 ar
   9    4    7 1
  10    5    6 ar
  11    5   32 1
  12    6   33 1
  13    7    8 1
  14    7   28 1
  15    7   34 1
  16    8    9 2
  17    8   12 1
  18    9   10 1
  19   10   11 2
  20   10   13 1
  21   11   12 1
  22   13   14 1
  23   13   18 1
  24   13   35 1
  25   14   15 1
  26   14   36 1
  27   14   37 1
  28   15   16 1
  29   15   38 1
  30   15   39 1
  31   16   17 1
  32   16   40 1
  33   16   41 1
  34   17   18 1
  35   17   19 am
  36   18   42 1
  37   18   43 1
  38   19   20 2
  39   19   21 1
  40   21   22 ar
  41   21   26 ar
  42   22   23 ar
  43   22   44 1
  44   23   24 ar
  45   23   45 1
  46   24   25 ar
  47   24   27 1
  48   25   26 ar
  49   25   46 1
  50   26   47 1
  51   28   48 1
  52   28   49 1
  53   28   50 1

#	End of record

