#	Name: ASD01912748
#	Creating user name:	WinNT
#	Creation time:	15. 06. 2019 20:00

#	Modifying user name:	WinNT
#	Modification time:	15. 06. 2019 20:00

#	Program:	/corina/corina34_cracker 3.40 0067  02.08.2006

@<TRIPOS>MOLECULE
ASD01912748
  41   44    0    0    0
SMALL
NO_CHARGES


@<TRIPOS>ATOM
   1 C1            -0.0165     1.3669     0.0096 C.2     
   2 N2             0.0021    -0.0041     0.0020 N.pl3   
   3 C3            -1.2023    -0.6921     0.0098 C.2     
   4 C4            -2.3629    -0.0499     0.0239 C.2     
   5 N5            -2.4359     1.3308     0.0320 N.am    
   6 C6            -1.3020     2.0668     0.0309 C.2     
   7 C7             1.3014     1.7836    -0.0008 C.2     
   8 C8             2.0550     0.6110    -0.0143 C.2     
   9 N9             1.2244    -0.4045    -0.0118 N.2     
  10 O10           -1.3489     3.2837     0.0384 O.2     
  11 C11           -3.6792     1.9641     0.0463 C.ar    
  12 C12            3.5595     0.5249    -0.0291 C.3     
  13 O13            4.1120     1.8427    -0.0273 O.3     
  14 C14            5.4672     1.9435    -0.0397 C.ar    
  15 C15            6.0711     3.1925    -0.0388 C.ar    
  16 C16            7.4489     3.2923    -0.0514 C.ar    
  17 C17            8.2259     2.1487    -0.0650 C.ar    
  18 C18            7.6265     0.9027    -0.0664 C.ar    
  19 C19            6.2492     0.7976    -0.0476 C.ar    
  20 C20           -4.8443     1.2121     0.1573 C.ar    
  21 C21           -6.0594     1.8925     0.1668 C.ar    
  22 N22           -4.8750     3.9090    -0.0312 N.ar    
  23 N23           -3.7539     3.2848    -0.0404 N.ar    
  24 C24           -6.0298     3.2819     0.0645 C.ar    
  25 O25           -7.2358     1.2231     0.2719 O.3     
  26 C26           -8.4305     2.0071     0.2729 C.3     
  27 H27           -1.1950    -1.7721     0.0039 H       
  28 H28           -3.2784    -0.6228     0.0288 H       
  29 H29            1.6684     2.7994     0.0012 H       
  30 H30            3.9013    -0.0136     0.8548 H       
  31 H31            3.8843    -0.0041    -0.9251 H       
  32 H32            5.4646     4.0861    -0.0285 H       
  33 H33            7.9195     4.2644    -0.0511 H       
  34 H34            9.3029     2.2288    -0.0749 H       
  35 H35            8.2356     0.0110    -0.0778 H       
  36 H36            5.7814    -0.1759    -0.0487 H       
  37 H37           -4.8078     0.1354     0.2333 H       
  38 H38           -6.9519     3.8442     0.0680 H       
  39 H39           -9.2959     1.3505     0.3621 H       
  40 H40           -8.4107     2.6985     1.1153 H       
  41 H41           -8.4962     2.5704    -0.6580 H       
@<TRIPOS>BOND
   1    1    2 1
   2    1    7 2
   3    1    6 1
   4    2    3 1
   5    2    9 1
   6    3    4 2
   7    3   27 1
   8    4    5 1
   9    4   28 1
  10    5    6 am
  11    5   11 1
  12    6   10 2
  13    7    8 1
  14    7   29 1
  15    8    9 2
  16    8   12 1
  17   11   20 ar
  18   11   23 ar
  19   12   13 1
  20   12   30 1
  21   12   31 1
  22   13   14 1
  23   14   15 ar
  24   14   19 ar
  25   15   16 ar
  26   15   32 1
  27   16   17 ar
  28   16   33 1
  29   17   18 ar
  30   17   34 1
  31   18   19 ar
  32   18   35 1
  33   19   36 1
  34   20   21 ar
  35   20   37 1
  36   21   24 ar
  37   21   25 1
  38   22   23 ar
  39   22   24 ar
  40   24   38 1
  41   25   26 1
  42   26   39 1
  43   26   40 1
  44   26   41 1

#	End of record

