#	Name: ASD01812508
#	Creating user name:	WinNT
#	Creation time:	15. 06. 2019 19:28

#	Modifying user name:	WinNT
#	Modification time:	15. 06. 2019 19:28

#	Program:	/corina/corina34_cracker 3.40 0067  02.08.2006

@<TRIPOS>MOLECULE
ASD01812508
  52   57    0    0    0
SMALL
NO_CHARGES


@<TRIPOS>ATOM
   1 C1            -0.0181     1.4560     0.0218 C.ar    
   2 C2             0.0015    -0.0041     0.0196 C.ar    
   3 C3            -1.2288    -0.7006    -0.0636 C.ar    
   4 C4            -2.4400     0.0188    -0.1416 C.ar    
   5 C5            -2.4521     1.3728    -0.1392 C.ar    
   6 C6            -1.2614     2.1117    -0.0534 C.ar    
   7 C7            -1.2205    -2.1038    -0.0664 C.ar    
   8 C8            -0.0357    -2.7735     0.0105 C.ar    
   9 C9             1.1709    -2.0862     0.0921 C.ar    
  10 C10            1.1991    -0.7219     0.0977 C.ar    
  11 N11            1.1080     2.1833     0.0986 N.2     
  12 C12            1.0833     3.4850     0.1005 C.2     
  13 N13           -0.0655     4.2044     0.0267 N.am    
  14 C14           -1.2632     3.5792    -0.0501 C.2     
  15 C15           -3.7432    -0.7330    -0.2298 C.3     
  16 C16           -4.2092    -1.0948     1.1570 C.ar    
  17 C17           -3.8225    -2.2883     1.7339 C.ar    
  18 C18           -5.0270    -0.2294     1.8701 C.ar    
  19 C19           -5.4322    -0.6006     3.1406 C.ar    
  20 C20           -5.0093    -1.8190     3.6557 C.ar    
  21 N21           -4.2253    -2.6146     2.9471 N.ar    
  22 O22           -2.3032     4.2104    -0.1131 O.2     
  23 O23           -5.3991    -2.1941     4.8999 O.3     
  24 C24           -4.9307    -3.4586     5.3729 C.3     
  25 C25           -0.0112     5.6012     0.0346 C.2     
  26 N26           -0.0585     6.4122     1.1383 N.pl3   
  27 C27            0.0255     7.7069     0.6886 C.2     
  28 N28            0.1198     7.6792    -0.6332 N.2     
  29 C29            0.1045     6.4112    -1.0498 C.2     
  30 C30           -0.1658     6.1496     2.4746 C.2     
  31 C31           -0.1914     7.1565     3.3723 C.2     
  32 C32           -0.1077     8.4919     2.9428 C.2     
  33 C33           -0.0034     8.7684     1.6150 C.2     
  34 H34           -3.3959     1.8942    -0.2004 H       
  35 H35           -2.1494    -2.6511    -0.1289 H       
  36 H36           -0.0338    -3.8535     0.0084 H       
  37 H37            2.0967    -2.6391     0.1521 H       
  38 H38            2.1418    -0.1990     0.1617 H       
  39 H39            2.0207     4.0174     0.1643 H       
  40 H40           -4.4925    -0.1058    -0.7128 H       
  41 H41           -3.5994    -1.6422    -0.8135 H       
  42 H42           -3.1826    -2.9632     1.1850 H       
  43 H43           -5.3398     0.7122     1.4437 H       
  44 H44           -6.0684     0.0488     3.7236 H       
  45 H45           -5.2792    -4.2476     4.7065 H       
  46 H46           -3.8410    -3.4570     5.3955 H       
  47 H47           -5.3147    -3.6356     6.3776 H       
  48 H48            0.1705     6.0841    -2.0770 H       
  49 H49           -0.2311     5.1269     2.8155 H       
  50 H50           -0.2769     6.9352     4.4259 H       
  51 H51           -0.1288     9.2956     3.6639 H       
  52 H52            0.0580     9.7914     1.2742 H       
@<TRIPOS>BOND
   1    1    2 ar
   2    1   11 1
   3    1    6 ar
   4    2   10 ar
   5    2    3 ar
   6    3    4 ar
   7    3    7 ar
   8    4    5 ar
   9    4   15 1
  10    5    6 ar
  11    5   34 1
  12    6   14 1
  13    7    8 ar
  14    7   35 1
  15    8    9 ar
  16    8   36 1
  17    9   10 ar
  18    9   37 1
  19   10   38 1
  20   11   12 2
  21   12   13 1
  22   12   39 1
  23   13   14 am
  24   13   25 1
  25   14   22 2
  26   15   16 1
  27   15   40 1
  28   15   41 1
  29   16   18 ar
  30   16   17 ar
  31   17   21 ar
  32   17   42 1
  33   18   19 ar
  34   18   43 1
  35   19   20 ar
  36   19   44 1
  37   20   21 ar
  38   20   23 1
  39   23   24 1
  40   24   45 1
  41   24   46 1
  42   24   47 1
  43   25   26 1
  44   25   29 2
  45   26   30 1
  46   26   27 1
  47   27   28 2
  48   27   33 1
  49   28   29 1
  50   29   48 1
  51   30   31 2
  52   30   49 1
  53   31   32 1
  54   31   50 1
  55   32   33 2
  56   32   51 1
  57   33   52 1

#	End of record

