#	Name: ASD01910806
#	Creating user name:	WinNT
#	Creation time:	15. 06. 2019 19:56

#	Modifying user name:	WinNT
#	Modification time:	15. 06. 2019 19:56

#	Program:	/corina/corina34_cracker 3.40 0067  02.08.2006

@<TRIPOS>MOLECULE
ASD01910806
  50   53    0    0    0
SMALL
NO_CHARGES


@<TRIPOS>ATOM
   1 C1             0.2672     1.1400    -0.3738 C.ar    
   2 C2             0.2108    -0.2526    -0.2979 C.ar    
   3 N3            -0.9496    -0.8724    -0.2342 N.ar    
   4 C4            -2.0954    -0.2056    -0.2392 C.ar    
   5 C5            -2.1141     1.1859    -0.3131 C.ar    
   6 C6            -0.9308     1.8712    -0.3755 C.ar    
   7 N7            -3.2915    -0.9022    -0.1705 N.3     
   8 C8            -3.0541    -2.3502    -0.0998 C.3     
   9 C9            -4.3822    -3.0703     0.1566 C.3     
  10 N10           -5.3483    -2.6478    -0.8688 N.am    
  11 C11           -5.5394    -1.2068    -1.0932 C.3     
  12 C12           -4.1657    -0.5601    -1.3004 C.3     
  13 C13           -6.0398    -3.5569    -1.5841 C.2     
  14 C14           -7.0947    -3.1137    -2.5208 C.ar    
  15 O15           -5.7964    -4.7412    -1.4593 O.2     
  16 C16           -7.2435    -3.7460    -3.7572 C.ar    
  17 C17           -8.2283    -3.3342    -4.6337 C.ar    
  18 C18           -9.0722    -2.2958    -4.2955 C.ar    
  19 C19           -8.9349    -1.6533    -3.0610 C.ar    
  20 C20           -7.9457    -2.0682    -2.1694 C.ar    
  21 C21           -9.8107    -0.5758    -2.7111 C.1     
  22 C22          -10.5287     0.3076    -2.4242 C.1     
  23 C23          -11.4045     1.3852    -2.0743 C.ar    
  24 C24          -11.2686     2.0282    -0.8412 C.ar    
  25 C25          -12.1155     3.0656    -0.5112 C.ar    
  26 C26          -13.0982     3.4697    -1.3977 C.ar    
  27 C27          -13.2390     2.8374    -2.6205 C.ar    
  28 C28          -12.3955     1.8026    -2.9667 C.ar    
  29 C29            1.5292     1.8131    -0.4431 C.1     
  30 N30            2.5304     2.3472    -0.4980 N.1     
  31 H31            1.1258    -0.8264    -0.2916 H       
  32 H32           -3.0535     1.7188    -0.3173 H       
  33 H33           -0.9195     2.9496    -0.4334 H       
  34 H34           -2.6291    -2.6955    -1.0423 H       
  35 H35           -2.3606    -2.5658     0.7130 H       
  36 H36           -4.2320    -4.1482     0.0961 H       
  37 H37           -4.7577    -2.8050     1.1449 H       
  38 H38           -6.1541    -1.0527    -1.9800 H       
  39 H39           -6.0261    -0.7624    -0.2250 H       
  40 H40           -4.2783     0.5225    -1.3583 H       
  41 H41           -3.7252    -0.9303    -2.2261 H       
  42 H42           -6.5865    -4.5591    -4.0287 H       
  43 H43           -8.3382    -3.8269    -5.5884 H       
  44 H44           -9.8399    -1.9786    -4.9857 H       
  45 H45           -7.8348    -1.5759    -1.2146 H       
  46 H46          -10.5026     1.7134    -0.1480 H       
  47 H47          -12.0117     3.5635     0.4415 H       
  48 H48          -13.7587     4.2824    -1.1339 H       
  49 H49          -14.0087     3.1576    -3.3071 H       
  50 H50          -12.5065     1.3099    -3.9214 H       
@<TRIPOS>BOND
   1    1    2 ar
   2    1   29 1
   3    1    6 ar
   4    2    3 ar
   5    2   31 1
   6    3    4 ar
   7    4    5 ar
   8    4    7 1
   9    5    6 ar
  10    5   32 1
  11    6   33 1
  12    7    8 1
  13    7   12 1
  14    8    9 1
  15    8   34 1
  16    8   35 1
  17    9   10 1
  18    9   36 1
  19    9   37 1
  20   10   11 1
  21   10   13 am
  22   11   12 1
  23   11   38 1
  24   11   39 1
  25   12   40 1
  26   12   41 1
  27   13   14 1
  28   13   15 2
  29   14   16 ar
  30   14   20 ar
  31   16   17 ar
  32   16   42 1
  33   17   18 ar
  34   17   43 1
  35   18   19 ar
  36   18   44 1
  37   19   20 ar
  38   19   21 1
  39   20   45 1
  40   21   22 3
  41   22   23 1
  42   23   24 ar
  43   23   28 ar
  44   24   25 ar
  45   24   46 1
  46   25   26 ar
  47   25   47 1
  48   26   27 ar
  49   26   48 1
  50   27   28 ar
  51   27   49 1
  52   28   50 1
  53   29   30 3

#	End of record

