#	Name: ASD04162001
#	Creating user name:	WinNT
#	Creation time:	15. 06. 2019 20:48

#	Modifying user name:	WinNT
#	Modification time:	15. 06. 2019 20:48

#	Program:	/corina/corina34_cracker 3.40 0067  02.08.2006

@<TRIPOS>MOLECULE
ASD04162001
  40   42    0    0    0
SMALL
NO_CHARGES


@<TRIPOS>ATOM
   1 C1            -0.0064     1.3350    -0.3718 C.ar    
   2 C2            -0.0048     0.0270     0.0929 C.ar    
   3 C3             1.1925    -0.6021     0.4023 C.ar    
   4 C4             2.3900     0.0744     0.2480 C.ar    
   5 C5             2.3892     1.3925    -0.2202 C.ar    
   6 C6             1.1830     2.0169    -0.5286 C.ar    
   7 O7            -1.1795    -0.6393     0.2457 O.3     
   8 C8            -2.3748     0.0678    -0.0907 C.3     
   9 O9             3.5635    -0.5402     0.5510 O.3     
  10 C10            3.6691     2.1232    -0.3873 C.2     
  11 N11            4.8421     1.5712    -0.1071 N.2     
  12 C12            5.8965     2.3047    -0.2918 C.2     
  13 S13            5.4093     3.8881    -0.8892 S.3     
  14 C14            3.7203     3.3883    -0.8385 C.2     
  15 N15            7.2026     1.9044    -0.0555 N.pl3   
  16 C16            8.2469     2.8266    -0.1660 C.ar    
  17 C17            8.0630     4.1397     0.2485 C.ar    
  18 C18            9.0970     5.0483     0.1378 C.ar    
  19 C19           10.3145     4.6524    -0.3850 C.ar    
  20 C20           10.5010     3.3460    -0.7986 C.ar    
  21 C21            9.4731     2.4308    -0.6854 C.ar    
  22 S22           11.6310     5.8151    -0.5249 S.o2    
  23 O23           12.4918     5.3259    -1.5441 O.2     
  24 O24           11.0277     7.1010    -0.5682 O.2     
  25 N25           12.4940     5.7508     0.8869 N.am    
  26 H26           -0.9407     1.8188    -0.6155 H       
  27 H27            1.1900    -1.6197     0.7640 H       
  28 H28            1.1787     3.0344    -0.8907 H       
  29 H29           -2.3396     0.3626    -1.1395 H       
  30 H30           -3.2376    -0.5769     0.0766 H       
  31 H31           -2.4591     0.9570     0.5340 H       
  32 H32            3.9629    -1.0133    -0.1917 H       
  33 H33            2.8719     3.9955    -1.1176 H       
  34 H34            7.3916     0.9843     0.1866 H       
  35 H35            7.1123     4.4496     0.6565 H       
  36 H36            8.9545     6.0694     0.4596 H       
  37 H37           11.4530     3.0402    -1.2067 H       
  38 H38            9.6195     1.4106    -1.0083 H       
  39 H39           12.2254     5.1414     1.5922 H       
  40 H40           13.2682     6.3224     1.0086 H       
@<TRIPOS>BOND
   1    1    2 ar
   2    1    6 ar
   3    1   26 1
   4    2    3 ar
   5    2    7 1
   6    3    4 ar
   7    3   27 1
   8    4    5 ar
   9    4    9 1
  10    5    6 ar
  11    5   10 1
  12    6   28 1
  13    7    8 1
  14    8   29 1
  15    8   30 1
  16    8   31 1
  17    9   32 1
  18   10   11 1
  19   10   14 2
  20   11   12 2
  21   12   13 1
  22   12   15 1
  23   13   14 1
  24   14   33 1
  25   15   16 1
  26   15   34 1
  27   16   17 ar
  28   16   21 ar
  29   17   18 ar
  30   17   35 1
  31   18   19 ar
  32   18   36 1
  33   19   20 ar
  34   19   22 1
  35   20   21 ar
  36   20   37 1
  37   21   38 1
  38   22   23 2
  39   22   24 2
  40   22   25 am
  41   25   39 1
  42   25   40 1

#	End of record

