#	Name: ASD01001189
#	Creating user name:	WinNT
#	Creation time:	15. 06. 2019 18:55

#	Modifying user name:	WinNT
#	Modification time:	15. 06. 2019 18:55

#	Program:	/corina/corina34_cracker 3.40 0067  02.08.2006

@<TRIPOS>MOLECULE
ASD01001189
  48   51    0    0    0
SMALL
NO_CHARGES


@<TRIPOS>ATOM
   1 C1            -0.0162     1.3462     0.0094 C.2     
   2 C2             1.1963     2.2411     0.0027 C.3     
   3 C3             1.1122     3.2206    -1.1714 C.3     
   4 N4             1.2390     3.0321     1.2411 N.pl3   
   5 C5             0.9383     2.4588    -2.4825 C.3     
   6 C6             2.3805     4.0697    -1.2085 C.3     
   7 C7             2.0587     4.1650     1.2941 C.ar    
   8 C8             2.2003     1.6407    -2.7718 C.3     
   9 C9             2.6209     4.6949     0.1432 C.ar    
  10 O10            3.5055     3.2521    -1.5403 O.3     
  11 C11            2.3065     4.7621     2.5255 C.ar    
  12 C12            3.4051     2.5863    -2.7994 C.3     
  13 C13            3.4226     5.8199     0.2268 C.ar    
  14 C14            3.1086     5.8833     2.6011 C.ar    
  15 C15            3.6657     6.4122     1.4515 C.ar    
  16 C16            4.5398     7.6370     1.5341 C.3     
  17 C17            3.9257     8.7594     0.6951 C.3     
  18 C18            4.6467     8.0899     2.9917 C.3     
  19 C19            5.9345     7.3053     0.9996 C.3     
  20 N20            0.0021    -0.0041     0.0020 N.pl3   
  21 C21           -1.2998    -0.4267     0.0130 C.2     
  22 C22           -2.0683     0.6790     0.0268 C.2     
  23 N23           -1.2578     1.7477     0.0292 N.2     
  24 H24            2.1001     1.6380    -0.0832 H       
  25 H25            0.2587     3.8828    -1.0255 H       
  26 H26            0.7069     2.7729     2.0096 H       
  27 H27            0.0819     1.7892    -2.4025 H       
  28 H28            0.7706     3.1668    -3.2942 H       
  29 H29            2.2702     4.8544    -1.9569 H       
  30 H30            2.3393     0.8945    -1.9896 H       
  31 H31            2.1016     1.1462    -3.7382 H       
  32 H32            1.8709     4.3487     3.4232 H       
  33 H33            4.3141     2.0132    -2.9821 H       
  34 H34            3.2721     3.3230    -3.5917 H       
  35 H35            3.8602     6.2363    -0.6684 H       
  36 H36            3.3005     6.3470     3.5574 H       
  37 H37            2.9321     8.9957     1.0759 H       
  38 H38            4.5579     9.6453     0.7549 H       
  39 H39            3.8495     8.4368    -0.3433 H       
  40 H40            5.0842     7.2903     3.5894 H       
  41 H41            5.2789     8.9758     3.0514 H       
  42 H42            3.6531     8.3262     3.3725 H       
  43 H43            5.8583     6.9827    -0.0388 H       
  44 H44            6.5667     8.1912     1.0594 H       
  45 H45            6.3720     6.5057     1.5973 H       
  46 H46            0.7905    -0.5690    -0.0093 H       
  47 H47           -1.6444    -1.4503     0.0105 H       
  48 H48           -3.1481     0.7014     0.0373 H       
@<TRIPOS>BOND
   1    1   20 1
   2    1    2 1
   3    1   23 2
   4    2    3 1
   5    2    4 1
   6    2   24 1
   7    3    5 1
   8    3    6 1
   9    3   25 1
  10    4    7 1
  11    4   26 1
  12    5    8 1
  13    5   27 1
  14    5   28 1
  15    6    9 1
  16    6   10 1
  17    6   29 1
  18    7    9 ar
  19    7   11 ar
  20    8   12 1
  21    8   30 1
  22    8   31 1
  23    9   13 ar
  24   10   12 1
  25   11   14 ar
  26   11   32 1
  27   12   33 1
  28   12   34 1
  29   13   15 ar
  30   13   35 1
  31   14   15 ar
  32   14   36 1
  33   15   16 1
  34   16   17 1
  35   16   18 1
  36   16   19 1
  37   17   37 1
  38   17   38 1
  39   17   39 1
  40   18   40 1
  41   18   41 1
  42   18   42 1
  43   19   43 1
  44   19   44 1
  45   19   45 1
  46   20   21 1
  47   20   46 1
  48   21   22 2
  49   21   47 1
  50   22   23 1
  51   22   48 1

#	End of record

