#	Name: ASD00450015
#	Creating user name:	WinNT
#	Creation time:	15. 06. 2019 18:36

#	Modifying user name:	WinNT
#	Modification time:	15. 06. 2019 18:36

#	Program:	/corina/corina34_cracker 3.40 0067  02.08.2006

@<TRIPOS>MOLECULE
ASD00450015
  55   58    0    0    0
SMALL
NO_CHARGES


@<TRIPOS>ATOM
   1 N1             0.2681     1.1222    -0.9986 N.ar    
   2 C2             0.2704    -0.1985    -0.8910 C.ar    
   3 C3             1.4705    -0.8618    -0.7258 C.ar    
   4 C4             2.6499    -0.1053    -0.6779 C.ar    
   5 N5             2.5703     1.2216    -0.7932 N.ar    
   6 C6             1.3974     1.8141    -0.9501 C.ar    
   7 C7             3.9559    -0.7647    -0.5028 C.2     
   8 S8             4.2499    -2.5018    -0.4847 S.3     
   9 C9             5.9203    -2.2328    -0.2467 C.2     
  10 N10            6.1800    -0.9713    -0.1935 N.2     
  11 C11            5.1656    -0.1358    -0.3299 C.2     
  12 C12            6.9516    -3.3239    -0.1166 C.3     
  13 C13            7.6429    -3.2126     1.2438 C.3     
  14 C14            6.2682    -4.6880    -0.2313 C.3     
  15 C15            7.9908    -3.1789    -1.2302 C.3     
  16 C16            5.3172     1.3374    -0.2963 C.ar    
  17 N17            1.3488     3.1925    -1.0667 N.pl3   
  18 C18            4.7804     3.4616     0.6925 C.ar    
  19 C19            4.6383     2.0891     0.6631 C.ar    
  20 C20            6.1439     1.9771    -1.2202 C.ar    
  21 C21            6.2805     3.3584    -1.1820 C.ar    
  22 C22            5.5952     4.0973    -0.2260 C.ar    
  23 F23            6.8093     1.2554    -2.1484 F       
  24 N24            7.1082     4.0054    -2.1054 N.am    
  25 S25            7.9832     5.3337    -1.6446 S.o2    
  26 O26            8.7899     5.6892    -2.7591 O.2     
  27 O27            7.0632     6.2283    -1.0342 O.2     
  28 C28            9.0894     4.8148    -0.3750 C.ar    
  29 C29            9.5644     4.4560     1.9475 C.ar    
  30 C30            8.6942     4.8640     0.9506 C.ar    
  31 C31           10.3521     4.3523    -0.7030 C.ar    
  32 C32           11.2206     3.9448     0.2955 C.ar    
  33 C33           10.8270     3.9997     1.6193 C.ar    
  34 F34            7.4602     5.3103     1.2718 F       
  35 F35           10.7369     4.2981    -1.9969 F       
  36 H36           -0.6569    -0.7506    -0.9317 H       
  37 H37            1.4997    -1.9376    -0.6353 H       
  38 H38            6.9026    -3.3159     2.0371 H       
  39 H39            8.3889    -4.0018     1.3379 H       
  40 H40            8.1298    -2.2408     1.3255 H       
  41 H41            5.7757    -4.7672    -1.2004 H       
  42 H42            7.0141    -5.4771    -0.1372 H       
  43 H43            5.5279    -4.7913     0.5620 H       
  44 H44            8.4777    -2.2071    -1.1485 H       
  45 H45            8.7367    -3.9681    -1.1360 H       
  46 H46            7.4983    -3.2582    -2.1993 H       
  47 H47            0.5055     3.6340    -1.2532 H       
  48 H48            2.1580     3.7169    -0.9619 H       
  49 H49            4.2534     4.0411     1.4360 H       
  50 H50            4.0010     1.5968     1.3827 H       
  51 H51            5.7016     5.1717    -0.1981 H       
  52 H52            7.1696     3.6761    -3.0157 H       
  53 H53            9.2563     4.4943     2.9819 H       
  54 H54           12.2058     3.5836     0.0398 H       
  55 H55           11.5053     3.6824     2.3975 H       
@<TRIPOS>BOND
   1    1    2 ar
   2    1    6 ar
   3    2    3 ar
   4    2   36 1
   5    3    4 ar
   6    3   37 1
   7    4    5 ar
   8    4    7 1
   9    5    6 ar
  10    6   17 1
  11    7    8 1
  12    7   11 2
  13    8    9 1
  14    9   10 2
  15    9   12 1
  16   10   11 1
  17   11   16 1
  18   12   13 1
  19   12   14 1
  20   12   15 1
  21   13   38 1
  22   13   39 1
  23   13   40 1
  24   14   41 1
  25   14   42 1
  26   14   43 1
  27   15   44 1
  28   15   45 1
  29   15   46 1
  30   16   20 ar
  31   16   19 ar
  32   17   47 1
  33   17   48 1
  34   18   19 ar
  35   18   22 ar
  36   18   49 1
  37   19   50 1
  38   20   21 ar
  39   20   23 1
  40   21   22 ar
  41   21   24 1
  42   22   51 1
  43   24   25 am
  44   24   52 1
  45   25   26 2
  46   25   27 2
  47   25   28 1
  48   28   31 ar
  49   28   30 ar
  50   29   30 ar
  51   29   33 ar
  52   29   53 1
  53   30   34 1
  54   31   32 ar
  55   31   35 1
  56   32   33 ar
  57   32   54 1
  58   33   55 1

#	End of record

