#	Name: ASD01903240
#	Creating user name:	WinNT
#	Creation time:	15. 06. 2019 19:54

#	Modifying user name:	WinNT
#	Modification time:	15. 06. 2019 19:54

#	Program:	/corina/corina34_cracker 3.40 0067  02.08.2006

@<TRIPOS>MOLECULE
ASD01903240
  34   37    0    0    0
SMALL
NO_CHARGES


@<TRIPOS>ATOM
   1 S1            -0.0218     1.7568     0.0117 S.3     
   2 C2             0.0021    -0.0041     0.0020 C.2     
   3 N3             1.2315    -0.4178    -0.0119 N.2     
   4 C4             2.1786     0.5104    -0.0160 C.2     
   5 C5             1.7401     1.7815    -0.0050 C.2     
   6 N6            -1.1192    -0.8214     0.0087 N.pl3   
   7 C7            -2.3862    -0.2596     0.0238 C.ar    
   8 C8             3.6219     0.1700    -0.0311 C.2     
   9 C9             4.2310    -1.1680    -0.0441 C.2     
  10 N10            5.5383    -0.9726    -0.0559 N.2     
  11 N11            5.8063     0.2815    -0.0519 N.pl3   
  12 C12            4.6839     1.0294    -0.0422 C.2     
  13 N13           -3.4460    -1.0546     0.0301 N.ar    
  14 C14           -4.6690    -0.5510     0.0444 C.ar    
  15 C15           -4.8333     0.8253     0.0529 C.ar    
  16 C16           -3.7030     1.6276     0.0460 C.ar    
  17 N17           -2.5086     1.0595     0.0370 N.ar    
  18 C18            3.5307    -2.4573    -0.0441 C.2     
  19 C19            4.3178    -3.7423    -0.0585 C.3     
  20 O20            2.3181    -2.4888    -0.0324 O.2     
  21 C21            3.6435    -4.9902     0.5151 C.3     
  22 C22            3.8398    -4.8530    -0.9960 C.3     
  23 H23            2.3608     2.6653    -0.0065 H       
  24 H24           -1.0163    -1.7859     0.0029 H       
  25 H25            6.7048     0.6469    -0.0587 H       
  26 H26            4.6339     2.1082    -0.0377 H       
  27 H27           -5.5290    -1.2042     0.0491 H       
  28 H28           -5.8206     1.2630     0.0643 H       
  29 H29           -3.7964     2.7036     0.0519 H       
  30 H30            5.3923    -3.6371     0.0910 H       
  31 H31            4.2745    -5.7062     1.0416 H       
  32 H32            2.6306    -4.8817     0.9029 H       
  33 H33            2.9561    -4.6542    -1.6024 H       
  34 H34            4.6001    -5.4787    -1.4637 H       
@<TRIPOS>BOND
   1    1    2 1
   2    1    5 1
   3    2    3 2
   4    2    6 1
   5    3    4 1
   6    4    5 2
   7    4    8 1
   8    5   23 1
   9    6    7 1
  10    6   24 1
  11    7   13 ar
  12    7   17 ar
  13    8    9 1
  14    8   12 2
  15    9   10 2
  16    9   18 1
  17   10   11 1
  18   11   12 1
  19   11   25 1
  20   12   26 1
  21   13   14 ar
  22   14   15 ar
  23   14   27 1
  24   15   16 ar
  25   15   28 1
  26   16   17 ar
  27   16   29 1
  28   18   19 1
  29   18   20 2
  30   19   21 1
  31   19   22 1
  32   19   30 1
  33   21   22 1
  34   21   31 1
  35   21   32 1
  36   22   33 1
  37   22   34 1

#	End of record

