#	Name: ASD01900659
#	Creating user name:	WinNT
#	Creation time:	15. 06. 2019 19:52

#	Modifying user name:	WinNT
#	Modification time:	15. 06. 2019 19:52

#	Program:	/corina/corina34_cracker 3.40 0067  02.08.2006

@<TRIPOS>MOLECULE
ASD01900659
  50   54    0    0    0
SMALL
NO_CHARGES


@<TRIPOS>ATOM
   1 C1            -0.0157     1.4040    -0.1132 C.ar    
   2 C2             0.0116     0.0194    -0.1174 C.ar    
   3 C3            -1.1600    -0.7088    -0.0663 C.ar    
   4 C4            -2.3828    -0.0533    -0.0092 C.ar    
   5 C5            -2.4058     1.3481    -0.0091 C.ar    
   6 O6            -3.5356    -0.7532     0.0530 O.3     
   7 C7            -4.7265    -0.1776    -0.1865 C.2     
   8 C8            -4.9021     1.1647    -0.2020 C.2     
   9 C9            -3.7272     2.0240     0.0389 C.2     
  10 C10           -5.8925    -1.0462    -0.4440 C.ar    
  11 N11           -7.0829    -0.4889    -0.6836 N.ar    
  12 C12           -8.1594    -1.1961    -0.9198 C.ar    
  13 C13           -8.0964    -2.6007    -0.9292 C.ar    
  14 C14           -6.8492    -3.2326    -0.6790 C.ar    
  15 C15           -5.7278    -2.4225    -0.4376 C.ar    
  16 C16           -9.2284    -3.3912    -1.1778 C.ar    
  17 C17           -9.1143    -4.7488    -1.1754 C.ar    
  18 C18           -7.8903    -5.3680    -0.9299 C.ar    
  19 C19           -6.7694    -4.6337    -0.6849 C.ar    
  20 C20           -1.2224     2.0732    -0.0539 C.ar    
  21 C21            1.2738     2.1819    -0.1673 C.3     
  22 N22            1.6330     2.4377    -1.5685 N.3     
  23 C23            2.7489     3.3904    -1.6609 C.3     
  24 C24            3.1289     3.5819    -3.1316 C.3     
  25 O25            1.9804     4.0207    -3.8622 O.3     
  26 C26            0.8747     3.1162    -3.7944 C.3     
  27 C27            0.4719     2.9200    -2.3305 C.3     
  28 N28           -3.8429     3.3069     0.2812 N.2     
  29 O29           -2.7044     4.0629     0.6516 O.3     
  30 H30            0.9596    -0.4962    -0.1615 H       
  31 H31           -1.1256    -1.7883    -0.0710 H       
  32 H32           -5.8756     1.5947    -0.3861 H       
  33 H33           -9.0994    -0.6986    -1.1078 H       
  34 H34           -4.7606    -2.8620    -0.2432 H       
  35 H35          -10.1843    -2.9265    -1.3695 H       
  36 H36           -9.9872    -5.3553    -1.3667 H       
  37 H37           -7.8294    -6.4463    -0.9342 H       
  38 H38           -5.8267    -5.1259    -0.4964 H       
  39 H39           -1.2458     3.1530    -0.0498 H       
  40 H40            1.1480     3.1306     0.3545 H       
  41 H41            2.0658     1.6061     0.3115 H       
  42 H42            2.4466     4.3473    -1.2355 H       
  43 H43            3.6060     3.0015    -1.1112 H       
  44 H44            3.9175     4.3304    -3.2092 H       
  45 H45            3.4821     2.6361    -3.5424 H       
  46 H46            0.0331     3.5278    -4.3515 H       
  47 H47            1.1624     2.1568    -4.2245 H       
  48 H48           -0.3331     2.1876    -2.2695 H       
  49 H49            0.1332     3.8694    -1.9158 H       
  50 H50           -2.8882     4.9990     0.8097 H       
@<TRIPOS>BOND
   1    1    2 ar
   2    1   21 1
   3    1   20 ar
   4    2    3 ar
   5    2   30 1
   6    3    4 ar
   7    3   31 1
   8    4    5 ar
   9    4    6 1
  10    5   20 ar
  11    5    9 1
  12    6    7 1
  13    7    8 2
  14    7   10 1
  15    8    9 1
  16    8   32 1
  17    9   28 2
  18   10   11 ar
  19   10   15 ar
  20   11   12 ar
  21   12   13 ar
  22   12   33 1
  23   13   14 ar
  24   13   16 ar
  25   14   15 ar
  26   14   19 ar
  27   15   34 1
  28   16   17 ar
  29   16   35 1
  30   17   18 ar
  31   17   36 1
  32   18   19 ar
  33   18   37 1
  34   19   38 1
  35   20   39 1
  36   21   22 1
  37   21   40 1
  38   21   41 1
  39   22   23 1
  40   22   27 1
  41   23   24 1
  42   23   42 1
  43   23   43 1
  44   24   25 1
  45   24   44 1
  46   24   45 1
  47   25   26 1
  48   26   27 1
  49   26   46 1
  50   26   47 1
  51   27   48 1
  52   27   49 1
  53   28   29 1
  54   29   50 1

#	End of record

