#	Name: ASD02562058
#	Creating user name:	WinNT
#	Creation time:	15. 06. 2019 20:25

#	Modifying user name:	WinNT
#	Modification time:	15. 06. 2019 20:25

#	Program:	/corina/corina34_cracker 3.40 0067  02.08.2006

@<TRIPOS>MOLECULE
ASD02562058
  51   54    0    0    0
SMALL
NO_CHARGES


@<TRIPOS>ATOM
   1 C1             0.1495     1.3572     1.2226 C.2     
   2 C2             0.1686    -0.0481     1.1728 C.2     
   3 C3             1.2906    -0.7017     0.8106 C.2     
   4 N4             2.4265    -0.0094     0.4867 N.pl3   
   5 C5             2.4379     1.3662     0.5263 C.2     
   6 C6             1.2687     2.0600     0.9037 C.2     
   7 C7             3.6722    -0.4154     0.0951 C.2     
   8 C8             4.4219     0.7258    -0.0973 C.2     
   9 N9             3.6414     1.7877     0.1734 N.2     
  10 N10            4.1024    -1.7324    -0.0770 N.3     
  11 C11            5.8397     0.7741    -0.5263 C.ar    
  12 C12            2.9802    -2.6727     0.0432 C.3     
  13 C13            3.3165    -3.9661    -0.7017 C.3     
  14 C14            2.1477    -4.9454    -0.5765 C.3     
  15 C15            1.8997    -5.2574     0.9006 C.3     
  16 C16            1.5634    -3.9640     1.6455 C.3     
  17 C17            2.7322    -2.9846     1.5204 C.3     
  18 C18            6.2845     1.8053    -1.3534 C.ar    
  19 C19            7.6041     1.8479    -1.7511 C.ar    
  20 C20            8.4906     0.8645    -1.3285 C.ar    
  21 C21            8.0498    -0.1644    -0.5046 C.ar    
  22 C22            6.7327    -0.2083    -0.0989 C.ar    
  23 N23            9.8274     0.9100    -1.7330 N.pl3   
  24 C24           10.2661     1.9191    -2.7003 C.3     
  25 C25           10.7903    -0.0513    -1.1898 C.3     
  26 H26           -0.7529     1.8767     1.5091 H       
  27 H27           -0.7202    -0.6067     1.4264 H       
  28 H28            1.2936    -1.7811     0.7758 H       
  29 H29            1.2630     3.1394     0.9392 H       
  30 H30            4.5759    -1.8456    -0.9608 H       
  31 H31            2.0846    -2.2267    -0.3893 H       
  32 H32            3.4932    -3.7439    -1.7541 H       
  33 H33            4.2122    -4.4121    -0.2692 H       
  34 H34            1.2521    -4.4995    -1.0090 H       
  35 H35            2.3874    -5.8669    -1.1072 H       
  36 H36            1.0670    -5.9551     0.9898 H       
  37 H37            2.7953    -5.7034     1.3332 H       
  38 H38            0.6677    -3.5180     1.2130 H       
  39 H39            1.3867    -4.1862     2.6979 H       
  40 H40            3.6278    -3.4306     1.9529 H       
  41 H41            2.4925    -2.0632     2.0510 H       
  42 H42            5.5959     2.5695    -1.6823 H       
  43 H43            7.9490     2.6459    -2.3918 H       
  44 H44            8.7407    -0.9276    -0.1779 H       
  45 H45            6.3908    -1.0078     0.5415 H       
  46 H46            9.4397     2.5950    -2.9202 H       
  47 H47           11.0977     2.4861    -2.2819 H       
  48 H48           10.5872     1.4270    -3.6183 H       
  49 H49           10.8180    -0.9364    -1.8255 H       
  50 H50           11.7800     0.4043    -1.1580 H       
  51 H51           10.4892    -0.3371    -0.1820 H       
@<TRIPOS>BOND
   1    1    2 1
   2    1    6 2
   3    1   26 1
   4    2    3 2
   5    2   27 1
   6    3    4 1
   7    3   28 1
   8    4    5 1
   9    4    7 1
  10    5    6 1
  11    5    9 2
  12    6   29 1
  13    7    8 2
  14    7   10 1
  15    8    9 1
  16    8   11 1
  17   10   12 1
  18   10   30 1
  19   11   18 ar
  20   11   22 ar
  21   12   13 1
  22   12   17 1
  23   12   31 1
  24   13   14 1
  25   13   32 1
  26   13   33 1
  27   14   15 1
  28   14   34 1
  29   14   35 1
  30   15   16 1
  31   15   36 1
  32   15   37 1
  33   16   17 1
  34   16   38 1
  35   16   39 1
  36   17   40 1
  37   17   41 1
  38   18   19 ar
  39   18   42 1
  40   19   20 ar
  41   19   43 1
  42   20   21 ar
  43   20   23 1
  44   21   22 ar
  45   21   44 1
  46   22   45 1
  47   23   24 1
  48   23   25 1
  49   24   46 1
  50   24   47 1
  51   24   48 1
  52   25   49 1
  53   25   50 1
  54   25   51 1

#	End of record

