#	Name: ASD08178040
#	Creating user name:	WinNT
#	Creation time:	15. 06. 2019 21:18

#	Modifying user name:	WinNT
#	Modification time:	15. 06. 2019 21:18

#	Program:	/corina/corina34_cracker 3.40 0067  02.08.2006

@<TRIPOS>MOLECULE
ASD08178040
  66   69    0    0    0
SMALL
NO_CHARGES


@<TRIPOS>ATOM
   1 N1            -0.0155     1.2947     0.0092 N.2     
   2 C2             0.0021    -0.0041     0.0020 C.2     
   3 N3            -1.1168    -0.8300     0.0076 N.am    
   4 N4             1.0945     1.8960     0.0018 N.2     
   5 C5             2.1557     1.1534    -0.0123 C.2     
   6 S6             1.6320    -0.5310    -0.0164 S.3     
   7 C7             3.5816     1.6410    -0.0241 C.3     
   8 C8             4.0787     1.7984     1.4143 C.3     
   9 C9             5.5263     2.2934     1.4024 C.3     
  10 C10            6.0234     2.4507     2.8408 C.3     
  11 C11            7.4493     2.9383     2.8291 C.2     
  12 N12            7.8338     4.1751     2.8322 N.2     
  13 N13            9.0796     4.3793     2.8214 N.2     
  14 C14            9.8607     3.3416     2.8082 C.2     
  15 S15            8.8945     1.9270     2.8164 S.3     
  16 N16           11.2510     3.3736     2.7944 N.am    
  17 C17           11.8979     4.5560     2.7944 C.2     
  18 O18           11.2676     5.5921     2.8065 O.2     
  19 C19           13.4044     4.5907     2.7793 C.3     
  20 C20           -2.3521    -0.2911     0.0220 C.2     
  21 O21           -2.4879     0.9140     0.0301 O.2     
  22 C22           -3.5646    -1.1861     0.0280 C.3     
  23 C23           -4.8124    -0.3413     0.0443 C.ar    
  24 C24           -5.7108    -0.4555     1.0887 C.ar    
  25 C25           -5.0559     0.5518    -0.9823 C.ar    
  26 C26           -6.2005     1.3267    -0.9674 C.ar    
  27 C27           -7.1019     1.2082     0.0739 C.ar    
  28 C28           -6.8554     0.3194     1.1036 C.ar    
  29 C29           13.8740     6.0227     2.7825 C.ar    
  30 C30           14.6476     6.4987     1.7405 C.ar    
  31 C31           15.0784     7.8122     1.7434 C.ar    
  32 C32           14.7351     8.6498     2.7882 C.ar    
  33 C33           13.9607     8.1741     3.8297 C.ar    
  34 C34           13.5263     6.8617     3.8246 C.ar    
  35 C35           13.9434     3.8745     4.0193 C.3     
  36 O36           13.5966     2.4896     3.9579 O.3     
  37 C37           -3.5581    -2.0621    -1.2264 C.3     
  38 O38           -2.4358    -2.9457    -1.1845 O.3     
  39 H39           -1.0082    -1.7939     0.0010 H       
  40 H40            4.2081     0.9191    -0.5480 H       
  41 H41            3.6324     2.6033    -0.5334 H       
  42 H42            3.4522     2.5202     1.9383 H       
  43 H43            4.0279     0.8360     1.9237 H       
  44 H44            6.1528     1.5715     0.8785 H       
  45 H45            5.5771     3.2557     0.8931 H       
  46 H46            5.3969     3.1726     3.3648 H       
  47 H47            5.9726     1.4884     3.3501 H       
  48 H48           11.7552     2.5450     2.7847 H       
  49 H49           13.7705     4.0903     1.8828 H       
  50 H50           -3.5436    -1.8204     0.9142 H       
  51 H51           -5.5185    -1.1503     1.8929 H       
  52 H52           -4.3517     0.6444    -1.7959 H       
  53 H53           -6.3904     2.0250    -1.7691 H       
  54 H54           -7.9960     1.8138     0.0858 H       
  55 H55           -7.5597     0.2268     1.9172 H       
  56 H56           14.9158     5.8443     0.9243 H       
  57 H57           15.6834     8.1839     0.9297 H       
  58 H58           15.0722     9.6759     2.7908 H       
  59 H59           13.6928     8.8284     4.6461 H       
  60 H60           12.9213     6.4900     4.6384 H       
  61 H61           15.0281     3.9761     4.0548 H       
  62 H62           13.5074     4.3190     4.9139 H       
  63 H63           13.9070     1.9725     4.7137 H       
  64 H64           -4.4782    -2.6451    -1.2672 H       
  65 H65           -3.4894    -1.4292    -2.1112 H       
  66 H66           -2.3682    -3.5322    -1.9503 H       
@<TRIPOS>BOND
   1    1    2 2
   2    1    4 1
   3    2    3 1
   4    2    6 1
   5    3   20 am
   6    3   39 1
   7    4    5 2
   8    5    6 1
   9    5    7 1
  10    7    8 1
  11    7   40 1
  12    7   41 1
  13    8    9 1
  14    8   42 1
  15    8   43 1
  16    9   10 1
  17    9   44 1
  18    9   45 1
  19   10   11 1
  20   10   46 1
  21   10   47 1
  22   11   12 2
  23   11   15 1
  24   12   13 1
  25   13   14 2
  26   14   15 1
  27   14   16 1
  28   16   17 am
  29   16   48 1
  30   17   18 2
  31   17   19 1
  32   19   29 1
  33   19   35 1
  34   19   49 1
  35   20   21 2
  36   20   22 1
  37   22   23 1
  38   22   37 1
  39   22   50 1
  40   23   24 ar
  41   23   25 ar
  42   24   28 ar
  43   24   51 1
  44   25   26 ar
  45   25   52 1
  46   26   27 ar
  47   26   53 1
  48   27   28 ar
  49   27   54 1
  50   28   55 1
  51   29   30 ar
  52   29   34 ar
  53   30   31 ar
  54   30   56 1
  55   31   32 ar
  56   31   57 1
  57   32   33 ar
  58   32   58 1
  59   33   34 ar
  60   33   59 1
  61   34   60 1
  62   35   36 1
  63   35   61 1
  64   35   62 1
  65   36   63 1
  66   37   38 1
  67   37   64 1
  68   37   65 1
  69   38   66 1

#	End of record

