#	Name: ASD07300246
#	Creating user name:	WinNT
#	Creation time:	15. 06. 2019 21:09

#	Modifying user name:	WinNT
#	Modification time:	15. 06. 2019 21:09

#	Program:	/corina/corina34_cracker 3.40 0067  02.08.2006

@<TRIPOS>MOLECULE
ASD07300246
  46   50    0    0    0
SMALL
NO_CHARGES


@<TRIPOS>ATOM
   1 C1            -0.0169     1.3941     0.0097 C.ar    
   2 C2             0.0021    -0.0041     0.0020 C.ar    
   3 C3             1.2199    -0.6674    -0.0128 C.ar    
   4 C4             2.3808     0.0923    -0.0194 C.ar    
   5 C5             2.2878     1.4713    -0.0111 C.ar    
   6 N6             1.1161     2.0768     0.0026 N.ar    
   7 C7            -2.1139     0.6622     0.0347 C.2     
   8 N8            -1.3542     1.7734     0.0301 N.am    
   9 N9            -1.3235    -0.4279     0.0124 N.am    
  10 O10           -3.3304     0.6453     0.0517 O.2     
  11 N11           -3.4004     6.8662     0.0879 N.2     
  12 N12           -4.7628     6.5466     0.1040 N.pl3   
  13 C13           -4.9193     5.2112     0.0980 C.2     
  14 C14           -3.6623     4.6373     0.0779 C.ar    
  15 C15           -3.1755     3.3125     0.0639 C.ar    
  16 C16           -1.8316     3.0922     0.0444 C.ar    
  17 C17           -0.9139     4.1522     0.0387 C.ar    
  18 C18           -1.3179     5.4460     0.0518 C.ar    
  19 C19           -2.6968     5.7479     0.0719 C.ar    
  20 C20           -5.8057     7.4772     0.1238 C.ar    
  21 C21           -5.5155     8.8360     0.1282 C.ar    
  22 C22           -6.5576     9.7470     0.1474 C.ar    
  23 C23           -7.8587     9.2642     0.1617 C.ar    
  24 C24           -8.0733     7.8994     0.1563 C.ar    
  25 N25           -7.0599     7.0558     0.1328 N.ar    
  26 C26           -9.0249    10.2183     0.1833 C.3     
  27 C27           -1.7801    -1.8199     0.0093 C.3     
  28 C28           -1.9253    -2.3122     1.4506 C.3     
  29 H29            1.2635    -1.7465    -0.0186 H       
  30 H30            3.3476    -0.3890    -0.0305 H       
  31 H31            3.1908     2.0638    -0.0159 H       
  32 H32           -5.8602     4.6812     0.1073 H       
  33 H33           -3.8634     2.4799     0.0688 H       
  34 H34            0.1433     3.9319     0.0237 H       
  35 H35           -0.5883     6.2422     0.0473 H       
  36 H36           -4.4908     9.1768     0.1170 H       
  37 H37           -6.3626    10.8093     0.1515 H       
  38 H38           -9.0838     7.5186     0.1678 H       
  39 H39           -9.3198    10.4549    -0.8390 H       
  40 H40           -9.8628     9.7563     0.7055 H       
  41 H41           -8.7357    11.1340     0.6992 H       
  42 H42           -2.7438    -1.8850    -0.4957 H       
  43 H43           -1.0526    -2.4398    -0.5148 H       
  44 H44           -2.6528    -1.6924     1.9747 H       
  45 H45           -2.2651    -3.3479     1.4483 H       
  46 H46           -0.9616    -2.2471     1.9556 H       
@<TRIPOS>BOND
   1    1    2 ar
   2    1    6 ar
   3    1    8 1
   4    2    3 ar
   5    2    9 1
   6    3    4 ar
   7    3   29 1
   8    4    5 ar
   9    4   30 1
  10    5    6 ar
  11    5   31 1
  12    7    8 am
  13    7    9 am
  14    7   10 2
  15    8   16 1
  16    9   27 1
  17   11   12 1
  18   11   19 2
  19   12   13 1
  20   12   20 1
  21   13   14 2
  22   13   32 1
  23   14   15 ar
  24   14   19 ar
  25   15   16 ar
  26   15   33 1
  27   16   17 ar
  28   17   18 ar
  29   17   34 1
  30   18   19 ar
  31   18   35 1
  32   20   21 ar
  33   20   25 ar
  34   21   22 ar
  35   21   36 1
  36   22   23 ar
  37   22   37 1
  38   23   24 ar
  39   23   26 1
  40   24   25 ar
  41   24   38 1
  42   26   39 1
  43   26   40 1
  44   26   41 1
  45   27   28 1
  46   27   42 1
  47   27   43 1
  48   28   44 1
  49   28   45 1
  50   28   46 1

#	End of record

