#	Name: ASD02198867
#	Creating user name:	WinNT
#	Creation time:	15. 06. 2019 20:20

#	Modifying user name:	WinNT
#	Modification time:	15. 06. 2019 20:20

#	Program:	/corina/corina34_cracker 3.40 0067  02.08.2006

@<TRIPOS>MOLECULE
ASD02198867
  53   57    0    0    0
SMALL
NO_CHARGES


@<TRIPOS>ATOM
   1 C1            -0.0433     1.5018    -0.1149 C.2     
   2 C2            -0.0731     0.1620     0.0975 C.2     
   3 N3             1.0711    -0.5396     0.2599 N.pl3   
   4 N4             2.2356    -0.0048     0.2262 N.2     
   5 C5             2.4071     1.2848     0.0280 C.2     
   6 C6             1.2215     2.1358    -0.1604 C.2     
   7 C7             0.9796    -1.9188     0.4759 C.ar    
   8 C8             1.5812    -2.4912     1.5960 C.ar    
   9 C9             1.4882    -3.8567     1.8071 C.ar    
  10 C10            0.7969    -4.6520     0.9039 C.ar    
  11 C11            0.1982    -4.0796    -0.2116 C.ar    
  12 C12            0.2845    -2.7184    -0.4220 C.ar    
  13 C13            3.7640     1.8672    -0.0042 C.2     
  14 N14            4.3062     2.6074    -1.0170 N.pl3   
  15 N15            5.6081     2.9587    -0.6391 N.2     
  16 C16            5.8517     2.4588     0.5462 C.2     
  17 C17            4.7195     1.7717     0.9838 C.2     
  18 C18            3.6735     2.9521    -2.2182 C.ar    
  19 C19            3.8073     4.2353    -2.7318 C.ar    
  20 C20            3.1826     4.5720    -3.9166 C.ar    
  21 C21            2.4244     3.6327    -4.5913 C.ar    
  22 C22            2.2891     2.3540    -4.0825 C.ar    
  23 C23            2.9157     2.0096    -2.9008 C.ar    
  24 O24            1.3244     3.3390    -0.3483 O.2     
  25 N25            0.7031    -6.0341     1.1170 N.pl3   
  26 C26            0.0535    -6.9244     0.3061 C.2     
  27 C27            0.1856    -8.1562     0.8417 C.2     
  28 C28            0.9430    -8.0251     2.0253 C.2     
  29 C29            1.2507    -6.7186     2.1675 C.2     
  30 F30           -0.3156    -9.3048     0.3371 F       
  31 F31            1.2993    -9.0252     2.8608 F       
  32 C32            7.1402     2.6069     1.3137 C.3     
  33 O33            2.2580    -1.7104     2.4788 O.3     
  34 C34            2.8488    -2.3649     3.6033 C.3     
  35 H35           -0.9547     2.0655    -0.2495 H       
  36 H36           -1.0229    -0.3504     0.1378 H       
  37 H37            1.9537    -4.3024     2.6737 H       
  38 H38           -0.3390    -4.7005    -0.9133 H       
  39 H39           -0.1820    -2.2758    -1.2896 H       
  40 H40            4.6134     1.2523     1.9248 H       
  41 H41            4.3990     4.9694    -2.2051 H       
  42 H42            3.2860     5.5699    -4.3164 H       
  43 H43            1.9365     3.8985    -5.5175 H       
  44 H44            1.6960     1.6228    -4.6116 H       
  45 H45            2.8097     1.0108    -2.5039 H       
  46 H46           -0.4740    -6.6831    -0.6049 H       
  47 H47            1.8248    -6.2873     2.9742 H       
  48 H48            7.0924     3.5012     1.9349 H       
  49 H49            7.2885     1.7321     1.9469 H       
  50 H50            7.9717     2.6942     0.6143 H       
  51 H51            3.3570    -1.6289     4.2264 H       
  52 H52            2.0714    -2.8594     4.1858 H       
  53 H53            3.5689    -3.1057     3.2556 H       
@<TRIPOS>BOND
   1    1    2 2
   2    1    6 1
   3    1   35 1
   4    2    3 1
   5    2   36 1
   6    3    4 1
   7    3    7 1
   8    4    5 2
   9    5    6 1
  10    5   13 1
  11    6   24 2
  12    7    8 ar
  13    7   12 ar
  14    8    9 ar
  15    8   33 1
  16    9   10 ar
  17    9   37 1
  18   10   11 ar
  19   10   25 1
  20   11   12 ar
  21   11   38 1
  22   12   39 1
  23   13   14 1
  24   13   17 2
  25   14   15 1
  26   14   18 1
  27   15   16 2
  28   16   17 1
  29   16   32 1
  30   17   40 1
  31   18   19 ar
  32   18   23 ar
  33   19   20 ar
  34   19   41 1
  35   20   21 ar
  36   20   42 1
  37   21   22 ar
  38   21   43 1
  39   22   23 ar
  40   22   44 1
  41   23   45 1
  42   25   26 1
  43   25   29 1
  44   26   27 2
  45   26   46 1
  46   27   28 1
  47   27   30 1
  48   28   29 2
  49   28   31 1
  50   29   47 1
  51   32   48 1
  52   32   49 1
  53   32   50 1
  54   33   34 1
  55   34   51 1
  56   34   52 1
  57   34   53 1

#	End of record

