#	Name: ASD01885843
#	Creating user name:	WinNT
#	Creation time:	15. 06. 2019 19:50

#	Modifying user name:	WinNT
#	Modification time:	15. 06. 2019 19:50

#	Program:	/corina/corina34_cracker 3.40 0067  02.08.2006

@<TRIPOS>MOLECULE
ASD01885843
  47   50    0    0    0
SMALL
NO_CHARGES


@<TRIPOS>ATOM
   1 C1            -0.0172     1.4136     0.0098 C.ar    
   2 C2             0.0021    -0.0041     0.0020 C.ar    
   3 C3            -1.2278    -0.7095     0.0099 C.ar    
   4 C4            -2.4016     0.0313     0.0251 C.ar    
   5 C5            -2.3344     1.4291     0.0320 C.ar    
   6 N6            -1.1793     2.0669     0.0189 N.ar    
   7 C7             2.3774     1.4229    -0.0130 C.ar    
   8 C8             2.3912     0.0293    -0.0215 C.ar    
   9 C9             1.2286    -0.6812    -0.0137 C.ar    
  10 C10           -1.2590    -2.1899     0.0018 C.ar    
  11 C11           -3.5929     2.2132     0.0477 C.2     
  12 N12           -3.5476     3.5602     0.0545 N.am    
  13 O13           -4.6649     1.6414     0.0544 O.2     
  14 C14            3.6820     2.1773    -0.0214 C.3     
  15 C15           -2.0404    -2.8785     0.9300 C.ar    
  16 C16           -2.0661    -4.2574     0.9183 C.ar    
  17 C17           -1.3175    -4.9589    -0.0135 C.ar    
  18 C18           -0.5396    -4.2794    -0.9377 C.ar    
  19 C19           -0.5117    -2.9005    -0.9379 C.ar    
  20 F20           -1.3412    -6.3097    -0.0170 F       
  21 C21            4.1304     2.4212     1.3965 C.ar    
  22 C22            4.9376     1.5052     2.0530 C.ar    
  23 C23            5.3295     1.7630     3.3533 C.ar    
  24 N24            4.9440     2.8639     3.9681 N.ar    
  25 C25            4.1763     3.7571     3.3747 C.ar    
  26 C26            3.7500     3.5701     2.0737 C.ar    
  27 C27            1.2053     2.1129     0.0019 C.ar    
  28 C28            6.2070     0.7743     4.0767 C.3     
  29 O29            6.4910    -0.3299     3.2152 O.3     
  30 H30           -3.3596    -0.4673     0.0312 H       
  31 H31            3.3357    -0.4944    -0.0339 H       
  32 H32            1.2523    -1.7609    -0.0194 H       
  33 H33           -2.6918     4.0167     0.0492 H       
  34 H34           -4.3709     4.0731     0.0648 H       
  35 H35            4.4371     1.5915    -0.5456 H       
  36 H36            3.5461     3.1324    -0.5288 H       
  37 H37           -2.6239    -2.3328     1.6567 H       
  38 H38           -2.6704    -4.7914     1.6367 H       
  39 H39            0.0421    -4.8305    -1.6618 H       
  40 H40            0.0913    -2.3718    -1.6613 H       
  41 H41            5.2561     0.6013     1.5550 H       
  42 H42            3.8804     4.6469     3.9106 H       
  43 H43            3.1249     4.3072     1.5917 H       
  44 H44            1.2120     3.1929     0.0073 H       
  45 H45            7.1395     1.2592     4.3652 H       
  46 H46            5.6925     0.4163     4.9685 H       
  47 H47            7.0528    -1.0073     3.6161 H       
@<TRIPOS>BOND
   1    1    2 ar
   2    1   27 ar
   3    1    6 ar
   4    2    3 ar
   5    2    9 ar
   6    3    4 ar
   7    3   10 1
   8    4    5 ar
   9    4   30 1
  10    5    6 ar
  11    5   11 1
  12    7   14 1
  13    7   27 ar
  14    7    8 ar
  15    8    9 ar
  16    8   31 1
  17    9   32 1
  18   10   15 ar
  19   10   19 ar
  20   11   12 am
  21   11   13 2
  22   12   33 1
  23   12   34 1
  24   14   21 1
  25   14   35 1
  26   14   36 1
  27   15   16 ar
  28   15   37 1
  29   16   17 ar
  30   16   38 1
  31   17   18 ar
  32   17   20 1
  33   18   19 ar
  34   18   39 1
  35   19   40 1
  36   21   22 ar
  37   21   26 ar
  38   22   23 ar
  39   22   41 1
  40   23   24 ar
  41   23   28 1
  42   24   25 ar
  43   25   26 ar
  44   25   42 1
  45   26   43 1
  46   27   44 1
  47   28   29 1
  48   28   45 1
  49   28   46 1
  50   29   47 1

#	End of record

