#	Name: ASD01208759
#	Creating user name:	WinNT
#	Creation time:	15. 06. 2019 19:10

#	Modifying user name:	WinNT
#	Modification time:	15. 06. 2019 19:10

#	Program:	/corina/corina34_cracker 3.40 0067  02.08.2006

@<TRIPOS>MOLECULE
ASD01208759
  51   53    0    0    0
SMALL
NO_CHARGES


@<TRIPOS>ATOM
   1 C1            -0.2593     1.7855     0.5524 C.2     
   2 C2            -0.2288     0.3259     0.3251 C.ar    
   3 C3             0.9390    -0.2870    -0.1323 C.ar    
   4 C4             0.9634    -1.6554    -0.3436 C.ar    
   5 C5            -0.1707    -2.4172    -0.1013 C.ar    
   6 C6            -1.3337    -1.8123     0.3534 C.ar    
   7 C7            -1.3654    -0.4447     0.5725 C.ar    
   8 O8             0.7327     2.4540     0.3413 O.2     
   9 O9            -1.3889     2.3758     0.9886 O.3     
  10 O10           -2.4415    -2.5632     0.5891 O.3     
  11 C11           -3.4406    -2.5316    -0.3304 C.ar    
  12 C12           -4.6121    -3.2434    -0.1052 C.ar    
  13 C13           -5.6282    -3.2138    -1.0358 C.ar    
  14 C14           -5.4789    -2.4672    -2.2062 C.ar    
  15 C15           -4.2999    -1.7532    -2.4290 C.ar    
  16 C16           -3.2906    -1.7831    -1.4910 C.ar    
  17 O17           -6.5574    -1.7587    -4.3740 O.3     
  18 C18           -6.5657    -2.4333    -3.2068 C.2     
  19 N19           -7.7194    -3.0544    -3.1249 N.2     
  20 N20           -8.4153    -2.7969    -4.1760 N.2     
  21 C21           -7.7397    -2.0082    -4.9637 C.2     
  22 C22           -8.2003    -1.4732    -6.2952 C.3     
  23 O23            2.0997    -2.2530    -0.7894 O.3     
  24 C24            3.1023    -4.0015    -2.1227 C.3     
  25 C25            2.0214    -3.6456    -1.1001 C.3     
  26 C26            2.2351    -4.4652     0.1740 C.3     
  27 O27            4.3922    -3.8170    -1.5362 O.3     
  28 C28            5.4785    -4.1237    -2.4125 C.3     
  29 C29           -1.3463     3.8131     1.1900 C.3     
  30 H30            1.8221     0.3052    -0.3215 H       
  31 H31           -0.1482    -3.4841    -0.2675 H       
  32 H32           -2.2697     0.0248     0.9308 H       
  33 H33           -4.7267    -3.8209     0.8002 H       
  34 H34           -6.5385    -3.7677    -0.8601 H       
  35 H35           -4.1806    -1.1749    -3.3333 H       
  36 H36           -2.3802    -1.2275    -1.6606 H       
  37 H37           -7.9043    -2.1626    -7.0859 H       
  38 H38           -9.2855    -1.3707    -6.2898 H       
  39 H39           -7.7443    -0.4992    -6.4728 H       
  40 H40            2.9867    -5.0419    -2.4264 H       
  41 H41            3.0041    -3.3554    -2.9951 H       
  42 H42            1.0394    -3.8703    -1.5163 H       
  43 H43            1.4650    -4.2116     0.9026 H       
  44 H44            2.1753    -5.5274    -0.0630 H       
  45 H45            3.2171    -4.2405     0.5902 H       
  46 H46            6.4223    -3.9582    -1.8930 H       
  47 H47            5.4122    -5.1667    -2.7222 H       
  48 H48            5.4296    -3.4801    -3.2909 H       
  49 H49           -2.3181     4.1598     1.5412 H       
  50 H50           -0.5849     4.0535     1.9320 H       
  51 H51           -1.1037     4.3050     0.2480 H       
@<TRIPOS>BOND
   1    1    2 1
   2    1    8 2
   3    1    9 1
   4    2    3 ar
   5    2    7 ar
   6    3    4 ar
   7    3   30 1
   8    4    5 ar
   9    4   23 1
  10    5    6 ar
  11    5   31 1
  12    6    7 ar
  13    6   10 1
  14    7   32 1
  15    9   29 1
  16   10   11 1
  17   11   12 ar
  18   11   16 ar
  19   12   13 ar
  20   12   33 1
  21   13   14 ar
  22   13   34 1
  23   14   15 ar
  24   14   18 1
  25   15   16 ar
  26   15   35 1
  27   16   36 1
  28   17   18 1
  29   17   21 1
  30   18   19 2
  31   19   20 1
  32   20   21 2
  33   21   22 1
  34   22   37 1
  35   22   38 1
  36   22   39 1
  37   23   25 1
  38   24   25 1
  39   24   27 1
  40   24   40 1
  41   24   41 1
  42   25   26 1
  43   25   42 1
  44   26   43 1
  45   26   44 1
  46   26   45 1
  47   27   28 1
  48   28   46 1
  49   28   47 1
  50   28   48 1
  51   29   49 1
  52   29   50 1
  53   29   51 1

#	End of record

