#	Name: ASD01230685
#	Creating user name:	WinNT
#	Creation time:	15. 06. 2019 19:14

#	Modifying user name:	WinNT
#	Modification time:	15. 06. 2019 19:14

#	Program:	/corina/corina34_cracker 3.40 0067  02.08.2006

@<TRIPOS>MOLECULE
ASD01230685
  40   42    0    0    0
SMALL
NO_CHARGES


@<TRIPOS>ATOM
   1 C1            -0.0827    -2.6612     0.5332 C.3     
   2 S2             1.3723    -1.7397     1.1026 S.o2    
   3 O3             1.7679    -2.1806     2.3942 O.2     
   4 O4             2.3200    -1.6055     0.0522 O.2     
   5 O5             0.8606    -0.3244     1.3295 O.3     
   6 F6            -0.5671    -2.0856    -0.6463 F       
   7 F7             0.2738    -3.9921     0.2905 F       
   8 F8            -1.0770    -2.6167     1.5164 F       
   9 C9             0.1132    -0.1807     2.4554 C.ar    
  10 C10            0.7229     0.1510     3.6565 C.ar    
  11 C11           -0.0392     0.2965     4.7996 C.ar    
  12 C12           -1.4084     0.1116     4.7472 C.ar    
  13 C13           -2.0184    -0.2195     3.5514 C.ar    
  14 C14           -1.2616    -0.3600     2.4042 C.ar    
  15 C15           -2.2373     0.2709     5.9957 C.3     
  16 C16           -2.0375     1.6236     6.6994 C.3     
  17 C17           -3.5538     1.6253     6.9554 C.3     
  18 C18           -3.6837     0.7158     5.7222 C.3     
  19 C19           -2.1329    -0.9129     6.9223 C.ar    
  20 C20           -2.6388    -2.1398     6.5344 C.ar    
  21 C21           -2.5443    -3.2265     7.3820 C.ar    
  22 C22           -1.9412    -3.0861     8.6235 C.ar    
  23 C23           -1.4344    -1.8540     9.0104 C.ar    
  24 C24           -1.5263    -0.7717     8.1568 C.ar    
  25 O25           -1.8475    -4.1535     9.4593 O.3     
  26 H26            1.7924     0.2952     3.6981 H       
  27 H27            0.4351     0.5544     5.7350 H       
  28 H28           -3.0880    -0.3640     3.5132 H       
  29 H29           -1.7391    -0.6139     1.4694 H       
  30 H30           -1.4410     1.5584     7.6094 H       
  31 H31           -1.7065     2.4186     6.0312 H       
  32 H32           -3.8396     1.1395     7.8883 H       
  33 H33           -4.0171     2.6036     6.8272 H       
  34 H34           -3.8028     1.2628     4.7869 H       
  35 H35           -4.4163    -0.0821     5.8434 H       
  36 H36           -3.1085    -2.2486     5.5680 H       
  37 H37           -2.9399    -4.1846     7.0787 H       
  38 H38           -0.9645    -1.7421     9.9764 H       
  39 H39           -1.1277     0.1866     8.4556 H       
  40 H40           -1.0394    -4.6723     9.3456 H       
@<TRIPOS>BOND
   1    1    2 1
   2    1    6 1
   3    1    7 1
   4    1    8 1
   5    2    3 2
   6    2    4 2
   7    2    5 1
   8    5    9 1
   9    9   10 ar
  10    9   14 ar
  11   10   11 ar
  12   10   26 1
  13   11   12 ar
  14   11   27 1
  15   12   13 ar
  16   12   15 1
  17   13   14 ar
  18   13   28 1
  19   14   29 1
  20   15   16 1
  21   15   18 1
  22   15   19 1
  23   16   17 1
  24   16   30 1
  25   16   31 1
  26   17   18 1
  27   17   32 1
  28   17   33 1
  29   18   34 1
  30   18   35 1
  31   19   20 ar
  32   19   24 ar
  33   20   21 ar
  34   20   36 1
  35   21   22 ar
  36   21   37 1
  37   22   23 ar
  38   22   25 1
  39   23   24 ar
  40   23   38 1
  41   24   39 1
  42   25   40 1

#	End of record

