#	Name: ASD02198415
#	Creating user name:	WinNT
#	Creation time:	15. 06. 2019 20:19

#	Modifying user name:	WinNT
#	Modification time:	15. 06. 2019 20:19

#	Program:	/corina/corina34_cracker 3.40 0067  02.08.2006

@<TRIPOS>MOLECULE
ASD02198415
  46   49    0    0    0
SMALL
NO_CHARGES


@<TRIPOS>ATOM
   1 C1            -0.2100     1.0674    -0.3404 C.2     
   2 C2            -0.1187    -0.2633    -0.3573 C.2     
   3 S3             1.3987     1.7674    -0.2157 S.3     
   4 C4             2.1262     0.1663    -0.1928 C.2     
   5 C5             1.1705    -0.7605    -0.2758 C.2     
   6 S6             3.8534    -0.1631    -0.0783 S.o2    
   7 N7             4.4438    -0.2267    -1.6241 N.am    
   8 C8             4.3266     0.8818    -2.4613 C.ar    
   9 C9             4.0869     0.7058    -3.8424 C.ar    
  10 C10            3.9705     1.8458    -4.6750 C.ar    
  11 C11            4.0946     3.1295    -4.1214 C.ar    
  12 C12            4.3286     3.2725    -2.7722 C.ar    
  13 C13            4.4382     2.1529    -1.9449 C.ar    
  14 N14            3.9699    -0.5165    -4.3683 N.ar    
  15 C15            3.7478    -0.6901    -5.6484 C.ar    
  16 C16            3.6229     0.3872    -6.5231 C.ar    
  17 C17            3.7315     1.6639    -6.0510 C.ar    
  18 O18            4.4404     0.9798     0.5287 O.2     
  19 O19            3.9773    -1.4752     0.4529 O.2     
  20 S20           -1.7119     1.9838    -0.4361 S.o2    
  21 C21           -2.2816     2.2252     1.2137 C.ar    
  22 C22           -1.8854     3.3422     1.9252 C.ar    
  23 C23           -2.3323     3.5316     3.2195 C.ar    
  24 C24           -3.1758     2.6042     3.8022 C.ar    
  25 C25           -3.5727     1.4877     3.0903 C.ar    
  26 C26           -3.1292     1.3005     1.7945 C.ar    
  27 O27           -1.3666     3.2693    -0.9336 O.2     
  28 O28           -2.6603     1.1349    -1.0680 O.2     
  29 O29            4.4483     4.5166    -2.2389 O.3     
  30 C30            4.3203     5.6219    -3.1356 C.3     
  31 H31           -0.9851    -0.9041    -0.4287 H       
  32 H32            1.3863    -1.8188    -0.2789 H       
  33 H33            4.8712    -1.0353    -1.9472 H       
  34 H34            4.0072     4.0021    -4.7517 H       
  35 H35            4.6215     2.2857    -0.8889 H       
  36 H36            3.6598    -1.6946    -6.0353 H       
  37 H37            3.4400     0.2127    -7.5731 H       
  38 H38            3.6374     2.5109    -6.7145 H       
  39 H39           -1.2265     4.0667     1.4700 H       
  40 H40           -2.0222     4.4039     3.7757 H       
  41 H41           -3.5244     2.7518     4.8136 H       
  42 H42           -4.2314     0.7630     3.5456 H       
  43 H43           -3.4393     0.4282     1.2383 H       
  44 H44            5.0905     5.5573    -3.9042 H       
  45 H45            3.3365     5.5975    -3.6042 H       
  46 H46            4.4363     6.5539    -2.5824 H       
@<TRIPOS>BOND
   1    1    2 2
   2    1    3 1
   3    1   20 1
   4    2    5 1
   5    2   31 1
   6    3    4 1
   7    4    5 2
   8    4    6 1
   9    5   32 1
  10    6    7 am
  11    6   18 2
  12    6   19 2
  13    7    8 1
  14    7   33 1
  15    8    9 ar
  16    8   13 ar
  17    9   10 ar
  18    9   14 ar
  19   10   11 ar
  20   10   17 ar
  21   11   12 ar
  22   11   34 1
  23   12   13 ar
  24   12   29 1
  25   13   35 1
  26   14   15 ar
  27   15   16 ar
  28   15   36 1
  29   16   17 ar
  30   16   37 1
  31   17   38 1
  32   20   21 1
  33   20   27 2
  34   20   28 2
  35   21   22 ar
  36   21   26 ar
  37   22   23 ar
  38   22   39 1
  39   23   24 ar
  40   23   40 1
  41   24   25 ar
  42   24   41 1
  43   25   26 ar
  44   25   42 1
  45   26   43 1
  46   29   30 1
  47   30   44 1
  48   30   45 1
  49   30   46 1

#	End of record

