#	Name: ASD01948001
#	Creating user name:	WinNT
#	Creation time:	15. 06. 2019 20:13

#	Modifying user name:	WinNT
#	Modification time:	15. 06. 2019 20:13

#	Program:	/corina/corina34_cracker 3.40 0067  02.08.2006

@<TRIPOS>MOLECULE
ASD01948001
  42   44    0    0    0
SMALL
NO_CHARGES


@<TRIPOS>ATOM
   1 C1            -0.0680    -0.6177    -2.5338 C.ar    
   2 C2            -0.0245    -0.9423    -1.1804 C.ar    
   3 C3             1.2121    -1.2628    -0.5860 C.ar    
   4 C4             2.3483    -1.2397    -1.3919 C.ar    
   5 C5             2.2160    -0.9080    -2.7223 C.ar    
   6 N6             1.0389    -0.6116    -3.2480 N.ar    
   7 O7             0.9938    -1.5359     0.7111 O.3     
   8 C8            -1.0212    -1.0485    -0.1091 C.2     
   9 C9            -0.3186    -1.4167     1.0200 C.2     
  10 C10           -0.8823    -1.6359     2.3009 C.2     
  11 O11           -2.0633    -1.4090     2.4935 O.2     
  12 N12           -0.1118    -2.0957     3.3066 N.am    
  13 N13           -2.3844    -0.8249    -0.2099 N.pl3   
  14 C14           -2.9123     0.4308     0.1072 C.ar    
  15 C15           -4.2644     0.6901    -0.0949 C.ar    
  16 C16           -4.7822     1.9326     0.2199 C.ar    
  17 C17           -3.9569     2.9169     0.7345 C.ar    
  18 C18           -2.6129     2.6613     0.9361 C.ar    
  19 C19           -2.0898     1.4196     0.6295 C.ar    
  20 I20           -4.7454     4.7990     1.2089 I       
  21 F21           -5.0697    -0.2708    -0.5982 F       
  22 O22           -0.6753    -2.3148     4.5870 O.3     
  23 C23            0.2552    -2.8023     5.5558 C.3     
  24 C24           -0.4592    -3.0016     6.8940 C.3     
  25 C25            0.5043    -3.6399     7.8965 C.3     
  26 O26           -0.1941    -3.9328     9.1083 O.3     
  27 O27           -0.8969    -1.7362     7.3934 O.3     
  28 H28           -1.0115    -0.3749    -2.9998 H       
  29 H29            3.3178    -1.4780    -0.9799 H       
  30 H30            3.0941    -0.8885    -3.3507 H       
  31 H31            0.8288    -2.2764     3.1532 H       
  32 H32           -2.9729    -1.5391    -0.5004 H       
  33 H33           -5.8314     2.1353     0.0636 H       
  34 H34           -1.9718     3.4320     1.3380 H       
  35 H35           -1.0410     1.2199     0.7920 H       
  36 H36            0.6663    -3.7537     5.2182 H       
  37 H37            1.0629    -2.0808     5.6791 H       
  38 H38           -1.3209    -3.6539     6.7522 H       
  39 H39            0.9067    -4.5620     7.4771 H       
  40 H40            1.3211    -2.9492     8.1058 H       
  41 H41            0.3564    -4.3403     9.7909 H       
  42 H42           -0.1810    -1.1037     7.5436 H       
@<TRIPOS>BOND
   1    1    2 ar
   2    1    6 ar
   3    1   28 1
   4    2    3 ar
   5    2    8 1
   6    3    4 ar
   7    3    7 1
   8    4    5 ar
   9    4   29 1
  10    5    6 ar
  11    5   30 1
  12    7    9 1
  13    8    9 2
  14    8   13 1
  15    9   10 1
  16   10   11 2
  17   10   12 am
  18   12   22 1
  19   12   31 1
  20   13   14 1
  21   13   32 1
  22   14   15 ar
  23   14   19 ar
  24   15   16 ar
  25   15   21 1
  26   16   17 ar
  27   16   33 1
  28   17   18 ar
  29   17   20 1
  30   18   19 ar
  31   18   34 1
  32   19   35 1
  33   22   23 1
  34   23   24 1
  35   23   36 1
  36   23   37 1
  37   24   25 1
  38   24   27 1
  39   24   38 1
  40   25   26 1
  41   25   39 1
  42   25   40 1
  43   26   41 1
  44   27   42 1

#	End of record

