#	Name: ASD01810458
#	Creating user name:	WinNT
#	Creation time:	15. 06. 2019 19:24

#	Modifying user name:	WinNT
#	Modification time:	15. 06. 2019 19:24

#	Program:	/corina/corina34_cracker 3.40 0067  02.08.2006

@<TRIPOS>MOLECULE
ASD01810458
  41   44    0    0    0
SMALL
NO_CHARGES


@<TRIPOS>ATOM
   1 C1            -0.0170     1.4008     0.0097 C.ar    
   2 C2             0.0021    -0.0041     0.0020 C.ar    
   3 N3             1.1633     2.1121     0.0023 N.pl3   
   4 C4             2.3657     1.5229    -0.0124 C.2     
   5 C5             2.5120     0.1504    -0.0216 C.2     
   6 C6             1.3059    -0.6932    -0.0147 C.2     
   7 O7             1.3814    -1.9093    -0.0227 O.2     
   8 C8             3.8497    -0.4584    -0.0382 C.2     
   9 C9             1.0998     3.5757     0.0103 C.3     
  10 C10            1.0913     4.0704     1.4337 C.ar    
  11 O11            4.8390     0.2480    -0.0438 O.2     
  12 O12            3.9795    -1.8002    -0.0471 O.3     
  13 C13            2.2846     4.3489     2.0745 C.ar    
  14 C14            2.2801     4.8020     3.3793 C.ar    
  15 C15            1.0758     4.9782     4.0473 C.ar    
  16 C16           -0.1207     4.6982     3.4010 C.ar    
  17 C17           -0.1099     4.2503     2.0945 C.ar    
  18 N18            1.0679     5.4375     5.3717 N.pl3   
  19 C19           -1.1938    -0.7222     0.0105 C.ar    
  20 C20           -2.3934    -0.0461     0.0266 C.ar    
  21 C21           -2.4148     1.3416     0.0337 C.ar    
  22 C22           -1.2418     2.0635     0.0308 C.ar    
  23 C23           -0.0287     5.6513     6.1335 C.2     
  24 C24            0.3895     6.0904     7.3431 C.2     
  25 C25            1.7874     6.1474     7.3211 C.2     
  26 N26            2.1950     5.7506     6.1425 N.2     
  27 H27            3.2505     2.1422    -0.0174 H       
  28 H28            1.9684     3.9799    -0.5097 H       
  29 H29            0.1902     3.9027    -0.4934 H       
  30 H30            4.8793    -2.1541    -0.0579 H       
  31 H31            3.2211     4.2116     1.5544 H       
  32 H32            3.2124     5.0187     3.8795 H       
  33 H33           -1.0590     4.8340     3.9182 H       
  34 H34           -1.0403     4.0323     1.5913 H       
  35 H35           -1.1789    -1.8021     0.0042 H       
  36 H36           -3.3216    -0.5981     0.0332 H       
  37 H37           -3.3616     1.8611     0.0459 H       
  38 H38           -1.2718     3.1431     0.0369 H       
  39 H39           -1.0542     5.4993     5.8306 H       
  40 H40           -0.2439     6.3510     8.1782 H       
  41 H41            2.4210     6.4604     8.1377 H       
@<TRIPOS>BOND
   1    1    2 ar
   2    1    3 1
   3    1   22 ar
   4    2   19 ar
   5    2    6 1
   6    3    4 1
   7    3    9 1
   8    4    5 2
   9    4   27 1
  10    5    6 1
  11    5    8 1
  12    6    7 2
  13    8   11 2
  14    8   12 1
  15    9   10 1
  16    9   28 1
  17    9   29 1
  18   10   13 ar
  19   10   17 ar
  20   12   30 1
  21   13   14 ar
  22   13   31 1
  23   14   15 ar
  24   14   32 1
  25   15   16 ar
  26   15   18 1
  27   16   17 ar
  28   16   33 1
  29   17   34 1
  30   18   23 1
  31   18   26 1
  32   19   20 ar
  33   19   35 1
  34   20   21 ar
  35   20   36 1
  36   21   22 ar
  37   21   37 1
  38   22   38 1
  39   23   24 2
  40   23   39 1
  41   24   25 1
  42   24   40 1
  43   25   26 2
  44   25   41 1

#	End of record

